<?xml version="1.0" encoding="UTF-8"?>

<!-- generated on 2025-11-23 21:57:04.956379 by randomTrips.py UNKNOWN
<configuration>
    <net-file value="/mnt/c/UNIP/TCC_SUMO/scenarios/from_api/api.net.xml"/>
    <output-trip-file value="/mnt/c/UNIP/TCC_SUMO/scenarios/from_api/trips.xml"/>
    <route-file value="/mnt/c/UNIP/TCC_SUMO/scenarios/from_api/api.rou.xml"/>
    <period value="2.5"/>
</configuration>
-->

<!-- generated on 2025-11-23 21:57:04 by Eclipse SUMO duarouter Version 1.24.0
<duarouterConfiguration xmlns:xsi="http://www.w3.org/2001/XMLSchema-instance" xsi:noNamespaceSchemaLocation="http://sumo.dlr.de/xsd/duarouterConfiguration.xsd">

    <input>
        <net-file value="/mnt/c/UNIP/TCC_SUMO/scenarios/from_api/api.net.xml"/>
        <route-files value="/mnt/c/UNIP/TCC_SUMO/scenarios/from_api/trips.xml"/>
    </input>

    <output>
        <output-file value="/mnt/c/UNIP/TCC_SUMO/scenarios/from_api/api.rou.xml"/>
        <alternatives-output value="NUL"/>
    </output>

    <time>
        <begin value="0"/>
        <end value="3600.0"/>
    </time>

    <report>
        <no-warnings value="true"/>
        <ignore-errors value="true"/>
        <no-step-log value="true"/>
    </report>

</duarouterConfiguration>
-->

<routes xmlns:xsi="http://www.w3.org/2001/XMLSchema-instance" xsi:noNamespaceSchemaLocation="http://sumo.dlr.de/xsd/routes_file.xsd">
    <vehicle id="0" depart="0.00">
        <route edges="445255307 184233298#1-AddedOnRampEdge 184233298#1 99907243 1227811019 184233296 445221162 474424118 870318698 445255310 445221158#0 445221158#1 184233293#0 164107683#0 164107683#1 444987070#4 1356731503 164107625#0 164107625#1-AddedOnRampEdge 164107625#1 173070226#0 173070226#0-AddedOffRampEdge 445221164 -100070111 -332465801#5 -332465801#4"/>
    </vehicle>
    <vehicle id="1" depart="2.50">
        <route edges="576551761#1 975251312#1 975251312#2-AddedOnRampEdge 975251312#2 975251312#3 975251312#4 975251312#4-AddedOffRampEdge 461611213 461611211 14051964#0 14051964#1 14051964#2 14051343 975240023#0 975240023#1 14051396 151171714 151171711 14051701-AddedOnRampEdge 14051701 151171698#0 151171698#1 151171698#1-AddedOffRampEdge 151171698#2 15065227#0 15065227#1 975251301#0-AddedOnRampEdge 975251301#0 975251301#1 1337832769#0 1337832769#1 15065291#0 15065291#0-AddedOffRampEdge 15065291#1 15065291#2-AddedOnRampEdge 15065291#2 15065291#3 405506407#0 38000355 408388642 408388642-AddedOffRampEdge 478352929"/>
    </vehicle>
    <vehicle id="2" depart="5.00">
        <route edges="931540318-AddedOffRampEdge 1254482568 34437003 38199634 38199635 679082193#0 679082193#1 250743372#0 250743372#1 250743372#2 460204726 1011532982 477791400#0 477791400#1 1011532983 763419502#1 161258569 1222101423 1222101422 1222101421 1222101420 1222101419 1222101418"/>
    </vehicle>
    <vehicle id="3" depart="7.50">
        <route edges="224404648 176698769#0 176698769#1 831293238 438664822#4 438664822#5 224404654#0 224404654#0-AddedOffRampEdge 224404654#1 257084484#0 257084484#1 429979393#0 429979393#1 429979393#2-AddedOnRampEdge 429979393#2 429979392 975251307 38000363#0-AddedOnRampEdge 38000363#0 38000363#0-AddedOffRampEdge 38000363#1 704397190#0 704397190#1 975251306 704397191#0-AddedOnRampEdge 704397191#0 704397191#1 -836660894 -164107687 -471543041#2 -471543041#1 -471543041#0 -471543040 -471543022 -164107681#1 -164107681#0 -836738797 -164107654 1417036038 1417036038-AddedOffRampEdge 1214281466#0 1184412921 1184412921-AddedOffRampEdge 1417036564 1417036027 1417036030 184233294 1417036028 1417036035 1417036036 870318703-AddedOnRampEdge 870318703 445221161 184233298#0 184233298#1-AddedOnRampEdge 184233298#1 445251189#0 445251189#1 -445251189#1"/>
    </vehicle>
    <vehicle id="4" depart="10.00">
        <route edges="1426668793#1 1426668793#2 1426668791-AddedOnRampEdge 1426668791 404985936 720863733#0 720863733#1 478507562#0 257805847 478502394 478502395 15062178#2 649233806 -248878625 250748244#0 250748244#1 1103152800 34437008-AddedOnRampEdge 34437008 34437009 438897986#0-AddedOnRampEdge 438897986#0 438897986#0-AddedOffRampEdge 351752553 17761223#4-AddedOnRampEdge 17761223#4 17761223#4-AddedOffRampEdge 34437011 238948422 238948422-AddedOffRampEdge 34437007"/>
    </vehicle>
    <vehicle id="5" depart="12.50">
        <route edges="-34436997#1 -34436997#0 250748244#0 250748244#1 1103152800 34437008-AddedOnRampEdge 34437008 34437009 438897986#0-AddedOnRampEdge 438897986#0 438897986#0-AddedOffRampEdge 351752553 17761223#4-AddedOnRampEdge 17761223#4 17761223#4-AddedOffRampEdge 438897985#0 438897985#1 14051525#2 14051525#3 975251310 15059198#0 15059198#1 15059198#1-AddedOffRampEdge 15059198#2 15059198#3-AddedOnRampEdge 15059198#3 975251309 478352926 -867170875 -869073782 -867170874 867170876 975251295 975251294#0 975251294#0-AddedOffRampEdge 975251294#1 975251294#2-AddedOnRampEdge 975251294#2 478357775#0 478357775#1 478357775#2 478357775#3 478357775#3-AddedOffRampEdge 478357778 17760770#2 14052429#0"/>
    </vehicle>
    <vehicle id="6" depart="15.00">
        <route edges="4588380 782253028 782253028-AddedOffRampEdge 782253027 34436994 776546369 776546370 782253026 940587521 33972486#0 33972486#1 60863057 60863066#0 60863066#0-AddedOffRampEdge 60863066#1 60863066#1-AddedOffRampEdge 60863066#2 60863066#2-AddedOffRampEdge 14051437 14051701-AddedOnRampEdge 14051701 151171698#0 151171698#1 151171698#1-AddedOffRampEdge 37354829 975251312#2-AddedOnRampEdge 975251312#2 975251312#3 975251312#4 975251312#4-AddedOffRampEdge 17761223#0 17761223#1 17761223#2 17761223#3 17761223#4-AddedOnRampEdge 17761223#4 17761223#4-AddedOffRampEdge 34437011 238948422 238948422-AddedOffRampEdge 34437007 38002151#0 1230462066#0 1230462066#1 38002189#1-AddedOnRampEdge"/>
    </vehicle>
    <vehicle id="7" depart="17.50">
        <route edges="1426668793#2 1426668791-AddedOnRampEdge 1426668791 404985936 720863733#0 720863733#1 478507562#0 257805847 478502394 478502395 15062178#2 649233806 -248878625 250748244#0 250748244#1 1103152800 34437008-AddedOnRampEdge 34437008 34437009 438897986#0-AddedOnRampEdge 438897986#0 438897986#0-AddedOffRampEdge 438897986#1 438897986#2"/>
    </vehicle>
    <vehicle id="8" depart="20.00">
        <route edges="173070208 173070208-AddedOffRampEdge 474424557 173070253#0 173070253#1 184233296 445221162 474424118 870318698 445255310 445221158#0 445221158#1 184233293#0 184233293#1 1032064077#0 1032064077#1-AddedOnRampEdge 1032064077#1 1032064077#2 1032064077#3 445221159#0 445221159#1 444987072 649207605#0 649207605#1 649207604 649207604-AddedOffRampEdge 445256666 445256665#0 228096636#0 444984216 444984212#2 444984215-AddedOnRampEdge 444984215 444984218#0 444984218#1-AddedOnRampEdge 444984218#1 868641694 173206850 173206850-AddedOffRampEdge 443214287 443214674 443214673#0 443214673#0-AddedOffRampEdge 443214673#1 443214672#0 443214672#1 443214672#2 443214672#3 443214672#4 14051396 151171714 151171711 14051701-AddedOnRampEdge 14051701 151171698#0 151171698#1 151171698#1-AddedOffRampEdge 151171698#2 15065227#0 15065227#1 975251301#0-AddedOnRampEdge 975251301#0 975251301#1 1337832769#0"/>
    </vehicle>
    <vehicle id="9" depart="22.50">
        <route edges="967767883 15066080#1 975240013-AddedOnRampEdge 975240013 14052281#0 14052281#1 975240011 14051843#0 14051843#1 14051843#1-AddedOffRampEdge 14051843#2 14051843#3 975251312#0 975251312#1 975251312#2-AddedOnRampEdge 975251312#2 975251312#3 975251312#4 975251312#4-AddedOffRampEdge 461611213 461611211 14051964#0 14051964#1 14051302 38000382#0 38000382#0-AddedOffRampEdge 38000382#1 704397191#0-AddedOnRampEdge 704397191#0 704397191#1 -836660894 -164107687 -471543041#2 -471543041#1 -471543041#0 -471543040 -471543022 -164107681#1 -164107681#0 -836738797 -164107654 1417036038 1417036038-AddedOffRampEdge 1214281466#0 1184412921 1184412921-AddedOffRampEdge 1417036564 1417036027 1356731502 164107625#1-AddedOnRampEdge 164107625#1 173070226#0 173070226#0-AddedOffRampEdge 173070226#1 173070226#2-AddedOnRampEdge 173070226#2"/>
    </vehicle>
    <vehicle id="10" depart="25.00">
        <route edges="1222101429 1222101428 1222101430#0 -869986265 161258575#1 161258575#1-AddedOffRampEdge 1222101417 1222101416 1227797976 478497220 1227797973#0 1227797973#1 1227797973#2 1227797973#3 1227797973#4 622918272#0 622918272#1 622918272#2 478497226#0 478497226#1 38002154#0 38002154#1 765222323#0 765222323#1 765222322 1222101435 1222101434 1222101433#0"/>
    </vehicle>
    <vehicle id="11" depart="27.50">
        <route edges="839417384#1 683582965#0 683582965#1 211199030#2 211199030#3 211198038#0 211198038#0-AddedOffRampEdge 211198038#1 975240014-AddedOnRampEdge 975240014 34424721 975240013-AddedOnRampEdge 975240013 14052281#0 14052281#1 975240011 14051843#0 14051843#1 14051843#1-AddedOffRampEdge 14051843#2 14051843#3 975251312#0 975251312#1 975251312#2-AddedOnRampEdge 975251312#2 975251312#3 975251312#4 975251312#4-AddedOffRampEdge 461611213 461611211 14051964#0 14051964#1 14051964#2 14051343 975240023#0 479897915 39271386#0 39271386#0-AddedOffRampEdge 39271386#1 1338288458 1338288457 459458140 173206872 459458141 443214820#0 443214820#1-AddedOnRampEdge 443214820#1 868641693 173206881 173206881-AddedOffRampEdge 444985890 173206825 173206825-AddedOffRampEdge 173206828#0 173206828#1 173085000#0 173085037 82454382#3 164242562 164242576#0 444985896 444984212#1-AddedOnRampEdge"/>
    </vehicle>
    <vehicle id="12" depart="30.00">
        <route edges="724805668 724805667#0 724805667#1 1227811018#0 1227811018#1 159603617#0 159603617#0-AddedOffRampEdge 1326365850 1324891329 944859145 870007160#2 547231183#0 547231183#1 547231183#2 870007161#1 547231204"/>
    </vehicle>
    <vehicle id="13" depart="32.50">
        <route edges="38000375#1 940587520 38000378 480940009-AddedOnRampEdge 480940009 975251298 429984670 941470710 39232580 429979393#2-AddedOnRampEdge 429979393#2 429984357#0 429984357#1-AddedOnRampEdge 429984357#1 429984356 429979390#0 429979390#1 429979390#2 429979390#3-AddedOnRampEdge 429979390#3 408388642 408388642-AddedOffRampEdge 478352930#0 478352930#1-AddedOnRampEdge 478352930#1 478352930#2 478352930#3 478352930#4 478352930#5 478352930#6 975251294#0 975251294#0-AddedOffRampEdge 975251294#1 975251294#2-AddedOnRampEdge 975251294#2 478357775#0 478357775#1 478357775#2 478357775#3 478357775#3-AddedOffRampEdge 478357778 17760770#2 478357779 975251293#1-AddedOnRampEdge 975251293#1"/>
    </vehicle>
    <vehicle id="14" depart="35.00">
        <route edges="17761223#1 17761223#2 17761223#3 17761223#4-AddedOnRampEdge 17761223#4 17761223#4-AddedOffRampEdge 34437011 238948422 238948422-AddedOffRampEdge 34437007 38002151#0 1230462066#0 1230462066#1 38002189#1-AddedOnRampEdge 38002189#1 38002189#2 34436998#4 931540318 931540318-AddedOffRampEdge 1254482568 34437003 38199634 38199635"/>
    </vehicle>
    <vehicle id="15" depart="37.50">
        <route edges="82454382#1 82454382#2 82454382#3 164242562 164242576#0 164242576#1 164242576#2 164242576#3 445256664 649207603-AddedOnRampEdge 649207603 649207602#0 649207602#1 445256663#0 445256663#1-AddedOnRampEdge 445256663#1 1032064076#0 1032064076#1 444987070#0 444987070#1 444987070#2"/>
    </vehicle>
    <vehicle id="16" depart="40.00">
        <route edges="867179590 256302835 1022698571 979819182 867217397 866551397 866513207 255102685#0 255102685#0-AddedOffRampEdge 255102685#1 255102685#1-AddedOffRampEdge 255102685#2 255102685#3-AddedOnRampEdge 255102685#3 389898329#3 867677203 222930796#0 222930796#1 222930796#2 222930796#3 222930796#4 222930796#5 979819183#0 979819183#0-AddedOffRampEdge 939474846 255076146#1-AddedOnRampEdge 255076146#1 841764779 176698809 253236495#3 253236495#4 253236495#5 438664820 -224404646#1 -224404646#0 438664822#0 438664822#1 438664822#2 438664822#3 438664822#4 438664822#5 224404654#0 224404654#0-AddedOffRampEdge 224404654#1 257084484#0 257084484#1 429979393#0 38000370 940177528 429984623#1"/>
    </vehicle>
    <vehicle id="17" depart="42.50">
        <route edges="479293768#3 548731030 520721275 520723607#0 520723607#1 520721276#0 548731029 -479293768#3 -479293768#2 -479293768#1 -479293768#0 -445251189#2 -445251189#1 -445251189#0 99907243 1227811019 184233296 445221162 474424118 870318698 445255310 445221158#0 445221158#1 184233293#0 184233293#1 1032064077#0 1032064077#1-AddedOnRampEdge 1032064077#1 1032064077#2 1032064077#3 445221159#0 445221159#1 444987072 649207605#0 649207605#1 649207604 649207604-AddedOffRampEdge 445256666 445256665#0 228096636#0 444984216 444984212#2 444984215-AddedOnRampEdge 444984215 444984218#0 444984218#1-AddedOnRampEdge 444984218#1 868641694 173206850 173206850-AddedOffRampEdge 459458139 677304065 677304066 677318536 -238948415#1 -238948415#0 151171710 886553944 1241866568 151171713 1241866570 38002189#0 38002189#1-AddedOnRampEdge 38002189#1 38002189#2 34436998#4 931540318 931540318-AddedOffRampEdge 1254482568 34437003 38199634 38199635 679082193#0 868656706 -250743372#1 -250743372#0 -679082193#1 -679082193#0"/>
    </vehicle>
    <vehicle id="18" depart="45.00">
        <route edges="1445793428#0 1445793428#1 1445793429#0 1445793429#1 520721260 1184373032#0 1184373032#1 1184373032#2 1184373032#3 159603638#0 159603638#1 24654408#1 24654408#2 935445774 159603634 226666838 724805667#1 1227811018#0 1227811018#1 159603617#0 159603617#0-AddedOffRampEdge 159603617#1 1227811019 184233296 445221162 474424118 870318698 445255310 445221158#0 445221158#1 184233293#0 184233293#1 1032064077#0 1032064077#1-AddedOnRampEdge 1032064077#1 1032064077#2 1032064077#3 445221159#0 445221159#1 444987072 649207605#0 649207605#1 649207604 649207604-AddedOffRampEdge 445256666 445256665#0 445256665#1 445256665#2 164242564 164242577#0 164242577#1 134658993#0 134658993#1 134658993#2 134658993#2-AddedOffRampEdge 134658993#3 164242556 868510986 720863731-AddedOnRampEdge 720863731 161133657 161133668 474417274#0 474417264#0 474417264#1 136457418#0 136457418#1 136457418#1-AddedOffRampEdge 161133242#0 161133242#1-AddedOnRampEdge"/>
    </vehicle>
    <vehicle id="19" depart="47.50">
        <route edges="1192136864 474419859 443214820#1-AddedOnRampEdge 443214820#1 868641693 173206881 173206881-AddedOffRampEdge 444985890 173206825 173206825-AddedOffRampEdge 173206828#0 444984217#0 444984217#1 828234822 164242577#1 134658993#0 134658993#1 134658993#2 134658993#2-AddedOffRampEdge 134658993#3 164242556 868510986 720863731-AddedOnRampEdge 720863731 161133270 161133667 238948426 238948433 161133256#0 161133256#1 478507562#0 257805847 478502394 478502395 15062178#2 15062178#3 15062178#4 15062178#5 15062178#6 15062178#0 15062147"/>
    </vehicle>
    <vehicle id="20" depart="50.00">
        <route edges="1222102102#0 1222102102#1 389736741#0 389736741#1 389736741#2 255076146#0 255076146#1-AddedOnRampEdge 255076146#1 841764779 176698809 253236495#3 253236495#4 253236495#5 438664820 -224404646#1 -224404646#0 438664822#0 438664822#1 438664822#2 438664822#3 438664822#4 438664822#5 224404654#0 224404654#0-AddedOffRampEdge 224404654#1 257084484#0 257084484#1 429979393#0 429979393#1 429979393#2-AddedOnRampEdge 429979393#2 429979392 975251307 38000363#0-AddedOnRampEdge 38000363#0 38000363#0-AddedOffRampEdge 38000363#1 704397190#0 704397190#1 975251306 704397191#0-AddedOnRampEdge 704397191#0 704397191#1 -836660894 -164107687 -471543041#2 -471543041#1 -471543041#0 -471543040 -471543022 -164107681#1 -164107681#0 -836738797 -164107654 1417036038 1417036038-AddedOffRampEdge 1214281466#0 1184412921 1184412921-AddedOffRampEdge 1417036564 1417036027 1417036030 184233294 1417036028 1417036035 1417036036 870318703-AddedOnRampEdge 870318703 445221161 184233298#0 184233298#1-AddedOnRampEdge 184233298#1 445251190#0 445251190#1-AddedOnRampEdge 445251190#1 445251190#2 445251190#3 445251190#4 445251190#4-AddedOffRampEdge 445251190#5 24654408#0 24654408#1 24654408#2 935445774 159603634 226666838 724805667#1 1227811018#0 1227811018#1 159603617#0 159603617#0-AddedOffRampEdge 159603617#1"/>
    </vehicle>
    <vehicle id="21" depart="52.50">
        <route edges="445251190#1-AddedOnRampEdge 445251190#1 445251190#2 445251190#3 445251190#4 445251190#4-AddedOffRampEdge 445251190#5 24654408#0 24654408#1 24654408#2 935445774 159603634 226666838 724805667#1 1227811018#0 1227811018#1 159603617#0 159603617#0-AddedOffRampEdge 1326365850 1324891329 944859145 870007160#2 547231183#0 547231183#1 547231183#2 870007161#1 547231204 471543041#2 164107687 836660894 38000364#0 38000364#1 38000364#2 704397192#0-AddedOnRampEdge 704397192#0 704397192#1 480940008 975251299 480940009-AddedOnRampEdge 480940009 975251298 429984670 941470710 429984623#0 941470708 940471408#0 940471408#1 224404641#0 224404641#1 224404641#2 940491165 676583939#4 676583939#0 940491166 472383933 251803263 251803265 867763819 867602633#4 867602633#0 940521132 176716248 176716242#0 176716242#1 176716257#0"/>
    </vehicle>
    <vehicle id="22" depart="55.00">
        <route edges="176716242#0 176716242#1 176716257#0 176716257#1 -176716257#1 -176716257#0 -176716242#1 -176716242#0 -176716248 940521131 867602633#2 867763818 -251803265 -251803263 -472383933 940491167 676583939#2 940491168 -224404641#2 -224404641#1 -224404641#0 -940471408#1 -940471408#0 941470707 429984623#2 176698791#0 224404643 429979393#0 429979393#1 429979393#2-AddedOnRampEdge 429979393#2 429979392 975251307 38000363#0-AddedOnRampEdge 38000363#0 38000363#0-AddedOffRampEdge 38000363#1 704397190#0 704397190#1 975251306 704397191#0-AddedOnRampEdge 704397191#0 704397191#1 -836660894 -164107687 -471543041#2 -471543041#1 -471543041#0 -471543040 -471543022 -164107681#1 -164107681#0 -836738797 -164107654 1417036038 1417036038-AddedOffRampEdge 1214281466#0 1214281466#1 164107683#1 164107622 1417036039"/>
    </vehicle>
    <vehicle id="23" depart="57.50">
        <route edges="445261374#1 975251292#0-AddedOnRampEdge 975251292#0 975251292#1-AddedOnRampEdge 975251292#1 975251292#1-AddedOffRampEdge 445261369 14051843#1 14051843#1-AddedOffRampEdge 14051843#2 14051843#3 975251312#0 975251312#1 975251312#2-AddedOnRampEdge 975251312#2 975251312#3 975251312#4 975251312#4-AddedOffRampEdge 461611213 461611211 14051964#0 14051964#1 14051964#2 14051343 975240023#0 479897915 39271386#0 39271386#0-AddedOffRampEdge 39271386#1 1338288458 1338288457 459458140 173206872 459458141 443214820#0 443214820#1-AddedOnRampEdge 443214820#1 868641693 173206881 173206881-AddedOffRampEdge 444985891 173206853 173206856 444984218#1-AddedOnRampEdge"/>
    </vehicle>
    <vehicle id="24" depart="60.00">
        <route edges="134658993#2-AddedOffRampEdge 578245195#0 578245195#1 164242567#1 164242567#2 164242567#3 164242567#4-AddedOnRampEdge 164242567#4 82454382#0 82454382#1 82454382#2 82454382#3 164242562 164242576#0 164242576#1 164242576#2 164242576#3 445256664 649207603-AddedOnRampEdge 649207603 649207602#0 649207602#1 445256663#0 445256663#1-AddedOnRampEdge 445256663#1 1032064076#0 1032064076#1 444987070#0 444987070#1 444987070#2 444987070#3 1417036029 1325578647 1325578647-AddedOffRampEdge 1325578648 1325578646#0 1325578646#1 1417036031 1417036028 1417036035 1417036036 870318703-AddedOnRampEdge 870318703 445221161 184233298#0"/>
    </vehicle>
    <vehicle id="25" depart="62.50">
        <route edges="975251312#2-AddedOnRampEdge 975251312#2 975251312#3 975251312#4 975251312#4-AddedOffRampEdge 461611213 461611211 14051964#0 14051964#1 14051964#2 14051343 975240023#0 975240023#1 14051396 151171714 151171711 14051701-AddedOnRampEdge 14051701 151171698#0 151171698#1 151171698#1-AddedOffRampEdge 151171698#2 151171698#3 975251292#0-AddedOnRampEdge 975251292#0 975251292#1-AddedOnRampEdge 975251292#1 975251292#1-AddedOffRampEdge 445261369 14051843#1 14051843#1-AddedOffRampEdge 14051843#2 445261373"/>
    </vehicle>
    <vehicle id="26" depart="65.00">
        <route edges="38199632#1-AddedOffRampEdge 38199632#2 931540321 931560246#0 931560246#1-AddedOnRampEdge 931560246#1 931560246#2 931560247 1221983748 1221983747 931560245#0-AddedOnRampEdge 931560245#0 931560245#1 931560245#2-AddedOnRampEdge 931560245#2 931560245#3 931560245#4 931560245#5 34437006 34437008-AddedOnRampEdge 34437008 34437009 438897986#0-AddedOnRampEdge 438897986#0 438897986#0-AddedOffRampEdge 351752553 17761223#4-AddedOnRampEdge 17761223#4 17761223#4-AddedOffRampEdge 438897985#0 438897985#1 14051525#2 14051525#3 975251310 15059198#0 15059198#1 15059198#1-AddedOffRampEdge 15059198#2 15059198#3-AddedOnRampEdge 15059198#3 975251309 478352926 -867170875 -869073782 -867170874 867170876 975251295 975251294#0 975251294#0-AddedOffRampEdge 975251294#1 975251294#2-AddedOnRampEdge 975251294#2 478357775#0 478357775#1 478357775#2 478357775#3"/>
    </vehicle>
    <vehicle id="27" depart="67.50">
        <route edges="836738797 164107681#0 -164107681#0 -836738797 -164107654 1417036038 1417036038-AddedOffRampEdge 1214281466#0 1214281466#1 1214281465 1417036037 1032064077#0 1032064077#1-AddedOnRampEdge 1032064077#1 1032064077#2 1032064077#3 445221159#0 445221159#1 444987072 649207605#0 649207605#1 649207604 649207604-AddedOffRampEdge 445256666 445256665#0 228096636#0 444984216 444984212#2 444984215-AddedOnRampEdge 444984215 444984218#0 444984218#1-AddedOnRampEdge 444984218#1 868641694 173206850 173206850-AddedOffRampEdge 459458139 677304065 677304066 677318536 -238948415#1 -238948415#0 151171710 886553944 1241866568 151171713 1241866570 38002189#0 38002189#1-AddedOnRampEdge 38002189#1 38002189#2 34436998#4 931540318 931540318-AddedOffRampEdge 1254482568 931540320#0 931540320#1 931540319-AddedOnRampEdge 931540319 1158181810 1158181809 250617774#0 250617774#0-AddedOffRampEdge 250617774#1 1222101433#4 1222101433#5 1222101433#6 1222101433#7 1222101432 38002451#0 38002451#1 654531116#0 654531116#1"/>
    </vehicle>
    <vehicle id="28" depart="70.00">
        <route edges="1417036564 1417036027 1417036030 184233294 1417036028 1417036035 1417036036 870318703-AddedOnRampEdge 870318703 445221161 173070253#1 184233296 445221162 474424118 870318698 445255310 445221158#0 445221158#1 184233293#0 184233293#1 1032064077#0 1032064077#1-AddedOnRampEdge 1032064077#1 1032064077#2 1032064077#3 445221159#0 445221159#1 444987072 649207605#0 649207605#1 649207604 649207604-AddedOffRampEdge 445256666 445256665#0 445256665#1 445256665#2 164242564 164242577#0 521107878#0 521107878#1 82454382#2 82454382#3 164242562 164242576#0 164242576#1 164242576#2 164242576#3 445256664 649207603-AddedOnRampEdge 649207603 649207602#0 942997683#2"/>
    </vehicle>
    <vehicle id="29" depart="72.50">
        <route edges="869080592 869080590 869080591 673713525#0 673713525#1 14051525#0 14051525#0-AddedOffRampEdge 15061763#0 15061763#1 438897986#0-AddedOnRampEdge 438897986#0 438897986#0-AddedOffRampEdge 438897986#1 438897986#2 438897986#3 438897986#4 461611211 14051964#0 14051964#1 14051302 38000382#0 38000382#0-AddedOffRampEdge 38000382#1 704397191#0-AddedOnRampEdge 704397191#0 704397191#1 -836660894 -164107687 -471543041#2 -471543041#1 -471543041#0 -471543040 -471543022 -164107681#1 -164107681#0 -836738797 -164107654 1417036038 1417036038-AddedOffRampEdge 1214281466#0 1214281466#1 164107683#1"/>
    </vehicle>
    <vehicle id="30" depart="75.00">
        <route edges="461600833#2 1426668790 161133265#0 161133265#1 1426668793#0-AddedOnRampEdge 1426668793#0 1426668793#1-AddedOnRampEdge 1426668793#1 1426668793#2 1426668791-AddedOnRampEdge 1426668791 404985936 720863733#0 720863733#1 478507562#0 257805847 478502394 478502395 15062178#2 649233806 -248878625 250748244#0 250748244#1 1103152800 34437008-AddedOnRampEdge 34437008 34437009 438897986#0-AddedOnRampEdge 438897986#0 438897986#0-AddedOffRampEdge 351752553 17761223#4-AddedOnRampEdge 17761223#4 17761223#4-AddedOffRampEdge 438897985#0 438897985#1 14051525#2 14051525#3 975251310 15059198#0 15059198#1 15059198#1-AddedOffRampEdge 38001134 15065984#1-AddedOnRampEdge 15065984#1 15066080#0 15066080#1 975240013-AddedOnRampEdge 975240013 14052281#0 829003148 866942786 211198655#0-AddedOnRampEdge 211198655#0 211198655#1 211198655#2 211198655#3 211198655#4 211198655#4-AddedOffRampEdge 211198655#5 211199101 211199100#0 211199100#1-AddedOnRampEdge 211199100#1 211200111 211200131 179324849 211200110#0"/>
    </vehicle>
    <vehicle id="31" depart="77.50">
        <route edges="939474847 255076145#1-AddedOnRampEdge 255076145#1 255076145#1-AddedOffRampEdge 255076148 255076147#2-AddedOnRampEdge 255076147#2 255076147#2-AddedOffRampEdge 1222102103 1222102102#0 939474848 979819185#1-AddedOnRampEdge 979819185#1 255076129#0 255076129#1 255076129#2 255076129#3"/>
    </vehicle>
    <vehicle id="32" depart="80.00">
        <route edges="151171709#3 1052195788 151171701 151171704#0 151171704#0-AddedOffRampEdge 15062533 1023662035#0 1023662035#1-AddedOnRampEdge 1023662035#1 60863061 60863062#0 17760781 704397192#0-AddedOnRampEdge 704397192#0 38000381 33972486#1 60863057 60863066#0 60863066#0-AddedOffRampEdge 60863066#1 60863066#1-AddedOffRampEdge 60863066#2 60863066#2-AddedOffRampEdge 14051437 14051701-AddedOnRampEdge 14051701 151171698#0 151171698#1 151171698#1-AddedOffRampEdge 151171698#2 151171698#3 975251292#0-AddedOnRampEdge 975251292#0 975251292#1-AddedOnRampEdge 975251292#1 975251292#1-AddedOffRampEdge 975251292#2 14051747#0 14051747#1 14051747#2 14052359#0 14052359#1-AddedOnRampEdge 14052359#1 14052359#1-AddedOffRampEdge 15066323"/>
    </vehicle>
    <vehicle id="33" depart="82.50">
        <route edges="389736739 389736742#1 841726703 389736741#0 389736741#1 389736741#2 255076146#0 255076146#1-AddedOnRampEdge 255076146#1 841764779 176698809 253236495#3 253236518 438664842#3 37948707 17760770#0 17760770#1 17760770#2 14052429#0 14052429#1 14052429#2 14051747#2 975240012 975240011 14051843#0 14051843#1 14051843#1-AddedOffRampEdge 14051843#2 14051843#3 975251312#0 975251312#1 975251312#2-AddedOnRampEdge 975251312#2 975251312#3 975251312#4 975251312#4-AddedOffRampEdge 461611213 461611211 14051964#0 14051964#1 14051964#2 14051343 975240023#0 975240023#1 14051396 151171714 151171711"/>
    </vehicle>
    <vehicle id="34" depart="85.00">
        <route edges="429984623#1 429984623#2 176698791#0 224404643 429979393#0 429979393#1 429979393#2-AddedOnRampEdge 429979393#2 429979392 975251307 38000363#0-AddedOnRampEdge 38000363#0 38000363#0-AddedOffRampEdge 38000363#1 43230565 679037550 60863067#1 60863067#2-AddedOnRampEdge 60863067#2 151171700 975240010#0 975240010#1 975240010#2-AddedOnRampEdge 975240010#2 151171706 151171708 723007502 765222324#0 765222324#0-AddedOffRampEdge 765222324#1 765222324#2 461605677 -474422091#2 136456410 15062178#0 15062178#1 15062178#2 649233806 -248878625 34436997#0 34436997#1 34437000 34436998#1 34437001 931560245#0-AddedOnRampEdge 931560245#0 931560245#1 931560245#2-AddedOnRampEdge"/>
    </vehicle>
    <vehicle id="35" depart="87.50">
        <route edges="211199029 211199030#0 211199030#1 211199030#2 211199030#3 211198038#0 211198038#0-AddedOffRampEdge 211198038#1 975240014-AddedOnRampEdge 975240014 34424721 975240013-AddedOnRampEdge 975240013 14052281#0 14052281#1 975240011 14051843#0 14051843#1 14051843#1-AddedOffRampEdge 14051843#2 14051843#3 975251312#0 975251312#1 975251312#2-AddedOnRampEdge 975251312#2 975251312#3 975251312#4 975251312#4-AddedOffRampEdge 17761223#0 17761223#1 17761223#2 17761223#3 17761223#4-AddedOnRampEdge 17761223#4 17761223#4-AddedOffRampEdge 34437011 238948422 238948422-AddedOffRampEdge 1103152799 -250748244#1 -250748244#0 248878625 649233803 15062178#4 15062178#5 15062178#6 15062178#0 15062147 238948428 238948428-AddedOffRampEdge 868533411 1445460940#0 1445460940#1 1445460940#2 1426668788#1 404981173 461600833#0 1442295204 1426668793#1-AddedOnRampEdge 1426668793#1 1426668793#2"/>
    </vehicle>
    <vehicle id="36" depart="90.00">
        <route edges="1222101426 1222101424 161258571#0 161258571#1 763419502#0 763419502#1 161258569 1222101423 1222101422 1222101421 1222101420 1222101419 1222101418 161258575#0 161258575#1 161258575#1-AddedOffRampEdge 1222101417 1222101416 1227797976 478497220 1227797973#0 1227797973#1 1227797973#2 1227797973#3 1227797973#4 622918272#0 622918272#1 622918272#2 478497226#0 478497226#1 38002154#0 38002154#1 765222323#0 161133663#0 161133663#1 -1426668795#1 -1426668795#0 -161133656 -1445460939 1426668790 161133265#0 161133265#1 1426668793#0-AddedOnRampEdge 1426668793#0 1426668793#1-AddedOnRampEdge 1426668793#1 1426668793#2 1426668791-AddedOnRampEdge 1426668791 404985936 1426668787 161133255-AddedOnRampEdge 161133255 161133255-AddedOffRampEdge 161133276 474417265 474417266#0 474417266#1-AddedOnRampEdge 474417266#1 161133669 161133669-AddedOffRampEdge 868510985 161133664 720863730 164242563 164242567#0 164242567#1 164242566#0 164242566#1 164242566#2 996746300 996746297#1 924938150 488119148#5 864727950 -682552534"/>
    </vehicle>
    <vehicle id="37" depart="92.50">