<configuration><input><net-file value="api.net.xml"/><route-files value="api.rou.xml"/></input><time><begin value="0"/><end value="3600"/></time></configuration>