<?xml version="1.0" encoding="UTF-8"?>

<!-- generated on 2025-11-27 00:44:03.582060 by randomTrips.py UNKNOWN
<configuration>
    <net-file value="/mnt/c/UNIP/sumo-beck/scenarios/from_api/api.net.xml"/>
    <output-trip-file value="/mnt/c/UNIP/sumo-beck/scenarios/from_api/trips.xml"/>
    <route-file value="/mnt/c/UNIP/sumo-beck/scenarios/from_api/api.rou.xml"/>
    <period value="2.5"/>
</configuration>
-->

<!-- generated on 2025-11-27 00:43:58 by Eclipse SUMO duarouter Version 1.24.0
<duarouterConfiguration xmlns:xsi="http://www.w3.org/2001/XMLSchema-instance" xsi:noNamespaceSchemaLocation="http://sumo.dlr.de/xsd/duarouterConfiguration.xsd">

    <input>
        <net-file value="/mnt/c/UNIP/sumo-beck/scenarios/from_api/api.net.xml"/>
        <route-files value="/mnt/c/UNIP/sumo-beck/scenarios/from_api/trips.xml"/>
    </input>

    <output>
        <output-file value="/mnt/c/UNIP/sumo-beck/scenarios/from_api/api.rou.xml"/>
        <alternatives-output value="NUL"/>
    </output>

    <time>
        <begin value="0"/>
        <end value="3600.0"/>
    </time>

    <report>
        <no-warnings value="true"/>
        <ignore-errors value="true"/>
        <no-step-log value="true"/>
    </report>

</duarouterConfiguration>
-->

<routes xmlns:xsi="http://www.w3.org/2001/XMLSchema-instance" xsi:noNamespaceSchemaLocation="http://sumo.dlr.de/xsd/routes_file.xsd">
    <vehicle id="0" depart="0.00">
        <route edges="250748191#0 -250748191#0 -250748234#0 -926333538 -250748219#7 -250748219#6 -250748219#5 -250748219#4 -250748219#3 -250748219#2 -250748219#1 -250748219#0 34436997#8 34436997#9 34437000 34436998#1 34437001 931560245#0 931560245#1 931560245#2 931560245#3 931560245#4 931560245#5 931560245#6 931560245#7 931560245#8 1241866571 1241866569#0 1241866575 238948438 238948435#0 238948435#1 1241866577#0 1241866577#1 1241866577#2 238948415#0 238948415#1 238948415#2 942737693 173206867#1 173206867#2 173206867#3 1192136864 474419859#0 474419859#1 443214820#1 868641693 173206881#0 173206881#1 444985890 173206825 173206828#0 173206828#1 173085000#0 173085037 82454382#3 164242562 164242576#0 164242576#1 164242576#2 164242576#3 445256664 649207603 649207602#0 649207602#1 445256663#0 445256663#1 444987071#1 173070220 -1165578694 173070140 173070281#2 578258726#1 578258726#2 578258726#3 173070262#0 173070262#1 173070262#2 185536389#0 185536389#1 185536389#2 185536389#3 185536389#4 185536389#5 185536389#6 185536389#7 185536389#8 185536389#9 185536389#10 185536389#11 185536389#12 185536389#13 185536389#14 185536389#15 185536389#16 185536389#17 185536389#18 173070264#0 -546102322 -173070128"/>
    </vehicle>
    <vehicle id="1" depart="2.50">
        <route edges="-443214283#1 -443214283#0 1192136864 474419859#0 474419859#1 443214820#1 868641693 868634104 868641694 173206850 443214287 443214674 443214673#0 443214673#1 443214672#0 443214672#1 443214672#2 443214672#3 443214672#4 14051396 151171714 151171711 14051701 151171698#0 151171698#1 151171698#2 15065227#0 15065227#1 975251301#0 329458479 478352930#6 975251294#0 975251294#1 975251294#2 478357775#0 478357775#1 478357775#2 478357775#3 478357775#4 37948706#0 37948706#1 37948706#2 438664842#1 253236487 253236495#5 253236495#0 253236495#1 253236511 253236490#0 253236490#1 255076144 389736739 389736742#1 841726703 389736741#0 979819185#0 979819185#1 255076129#0 255076129#1 255076129#2 255076129#3 255076129#4 255102690 255102684 867692711 256696499#0 256696499#1 256696499#2 256696499#3 256728626#1 1174578625 256728629#2 389904505 389904494#5 389904494#0 389904494#1 389904503 389904495#5 389904495#0 -256728633"/>
    </vehicle>
    <vehicle id="2" depart="5.00">
        <route edges="369581053#0 369581054#0 369581054#1 369581054#2 369580428#1 -521066450#11 -521066450#10 -521066450#9 -521066450#8 -521066450#7 -521066450#6 -521066450#5 -521066450#4 -521066450#3 -521066450#2 -521066450#1 -521066450#0 1427959639 173085008#4 173085008#5 173085008#6 173085008#0 173085012#0 173085012#1 173085012#2 173085002#0 173085002#1 173085002#2 173085011 444984212#0 444984212#1 444984212#2 444984215 444984218#0 444984218#1 868641694 173206850 443214287 443214674 443214673#0 443214673#1 443214672#0 443214672#1 443214672#2 443214672#3 443214672#4 14051396 151171714 151171711 14051701 151171698#0 151171698#1 151171698#2 15065227#0 15065227#1 975251301#0 329458479 478352930#6 975251294#0 975251294#1 975251294#2 478357775#0 478357775#1 478357775#2 478357775#3 478357775#4 37948706#0 37948706#1 37948706#2 438664842#1 253236487 253236495#5 253236495#0 253236495#1 253236511 253236490#0 253236490#1 255076144 389736739 389736742#1 255076145#0"/>
    </vehicle>
    <vehicle id="3" depart="7.50">
        <route edges="596227855#3 191005959#0 191005959#1 724805668 724805667#0 724805667#1 159603636 159603635#0 159603635#1 159603603#0 159603603#1 159603603#2 159603603#3 159603603#4 159603603#5 159603603#6 159603603#7 159603603#8 520721262 1445793433#0 1445793433#1 1445793447 1445793430 -599505132#6 -599505132#5 -599505132#4 -599505132#3 -599505132#2 -599505132#1 -599505132#0 173869737#0 173869737#1 173869737#2 185218766#0 -173082218#3"/>
    </vehicle>
    <vehicle id="4" depart="10.00">
        <route edges="160398820#0 160398820#1 176709754#2 160398819 940577699 160398842#0 160398842#1 -679026088 -157480394 866571339 157480393 866571337 -679037535 968241409#0 164107671 38000364#1 38000364#2 704397192#0 704397192#1 480940008 975251299 480940009 975251298 429984670 941470710 39232580 429979393#2 429979392 975251307 38000363#0 38000363#1 704397190#0 704397190#1 975251306 704397191#0 704397191#1 -836660894 -164107687 -471543041#2 -471543041#1 -471543041#0 -471543040 -471543022 -164107681#1 -164107681#0 -836738797 -164107654 1417036038 1214281466#0 1214281466#1 164107683#1 173070118 445252957 100070021#0 534701550#0 534701550#1 870379684#0 173070173#1 173070173#2 -173070173#2"/>
    </vehicle>
    <vehicle id="5" depart="12.50">
        <route edges="-256346924 -390069855#0 390069854#0 256346931#1 256346918 390069860#5 390069860#0 390069860#1 390069860#2 474208097 -256346908 378725885#4 378725885#5 1299825642 390056270#0 390056270#1 390056270#2 866917174 378725880 866917173 179382241#4 179382241#0 256346901 256346899 217822152#5 217822152#6 217822152#7 217822152#8 217822152#9 217822152#10 217822152#11 211199029 211199030#0 211199030#1 211199030#2 211199030#3 211198038#0 211198038#1 975240014#0 975240014#1 975240014#2 37354723#0 17761744#0 17761744#1 14051843#5 14051843#6 975251312#0 975251312#1 975251312#2 975251312#3 975251312#4 461611213 461611211#0 461611211#1 14051964#0 14051964#1 14051302 38000382#0 38000382#1 704397191#0 704397191#1 -836660894 -164107687 -471543041#2 -471543041#1 -471543041#0 -471543040 -471543022 -164107681#1 -164107681#0 -836738797 -164107654 1417036038 1214281466#0 1184412921 1417036564 1417036027 1417036030 184233294 1417036028 1417036035 1417036036 870318703 445221161#0 445221161#1 445221161#2 184233298#0 184233298#1 445251189#0 445251189#1 445251189#2 445251189#3 445251189#4 445251189#5 479293768#0 479293769 867726194 546114192#0 546114192#1 546114192#2 546114192#3 546114192#4 546114192#5 520721271#0 184496021#0 173082198#2 184496032#1 173082257#3"/>
    </vehicle>
    <vehicle id="6" depart="15.00">
        <route edges="-173070140 -173070261#1 -444987071#3 -444987071#2 -444987071#1 -444987071#0 444987072 649207605#0 649207605#1 649207604 445256666 445256665#0 445256665#1 445256665#2 164242564 164242577#0 164242577#1 134658993#0 134658993#1 134658993#2 134658993#3 164242556 868510986 720863731 161133270 161133667 238948426 238948433 161133256#0 161133256#1 478507562#0 478507562#1 478507562#2 1426668788#0 1426668788#1 404981173 461600833#0 461600833#1 461600833#2 1445460939 161133656 1426668795#0 1426668795#1 161133662#0 161133662#1 765222320 765222322 1222101435 1222101434 1222101433#0 478502392 478502393 250748201#0 250748201#1 477798906 868227619 868227618 251663313 1022622261 966794882#0 -251663279 -251663267#1"/>
    </vehicle>
    <vehicle id="7" depart="17.50">
        <route edges="250748250#1 250748250#2 250748250#3 -250748249#5 -250748249#4 -250748249#3 -250748249#2 -250748249#1 -250748249#0 250748222#1 1303798299 15062178#6 15062178#7 15062178#8 15062178#0 15062178#1 15062178#2 649233806 -248878625 250748244#0 250748244#1 250748244#2 250748244#3 250748244#4 250748244#5 1103152800 34437008 34437009 438897986#0 351752553 17761223#4 17761223#5 17761223#6 438897985#0 438897985#1 14051525#2 14051525#3 975251310 15059198#0 15059198#1 15059198#2 15059198#3 38001134 15065984#1 15066080#0 15066080#1 15066080#2 15066080#3 15066080#4 15066080#5 975240013 211198879 975240015#1 975240014#0 438807821#0 37340144 37340149 438807820#7 438807820#8 438807820#9 438807820#10 438807820#11 941993434 37354605#0 37354605#1 37354605#2 -176602021#3 -176602021#2 -176602021#1 176602021#1"/>
    </vehicle>
    <vehicle id="8" depart="20.00">
        <route edges="-256616190 390041847#4 390041847#5 390041847#0 390041847#1 390041849 895671772 -256616199#0 255102685#1 255102685#2 255102685#3 255102685#4 255102685#5 255102685#6 389898329#3 389898329#4 867677203 222930796#0 222930796#1 222930796#2 222930796#3 222930796#4 222930796#5 222930796#6 979819183#0 939474846 255076146#1 841764779 176698809 253236495#3 253236495#4 253236495#5 438664820 -224404646#1 -224404646#0 438664822#0 438664822#1 438664822#2 438664822#3 438664822#4 438664822#5 224404654#0 224404654#1 257084484#0 257084484#1 429979393#0 429979393#1 429979393#2 429979392 975251307 38000363#0 38000363#1 704397190#0 704397190#1 975251306 704397191#0 704397191#1 -836660894 -164107687 -471543041#2 -471543041#1 -471543041#0 -471543040 -471543022 -164107681#1 -164107681#0 -836738797 -164107654 1417036038 1214281466#0 1184412921 1417036564 1417036027 1417036030 184233294 1417036028 1417036035 1417036036 870318703 445221161#0 445221161#1 445221161#2 173070253#1 184233296"/>
    </vehicle>
    <vehicle id="9" depart="22.50">
        <route edges="-870772170 870772170 38000935#4 673713525#0 673713525#1 14051525#0 14051525#1 14051525#2 14051525#3 975251310 15059198#0 15059198#1 15059198#2 15059198#3 38001134 15065984#1 15066080#0 15066080#1 15066080#2 15066080#3 15066080#4 15066080#5 975240013 14052281#0 829003148 866942786 211198655#0 211198655#1 211198655#2 211198655#3 211198655#4 211198655#5 211198655#6 211199101 211199100#0 211199100#1 211200111 211200131 179324849 211200110#0 179382945 179382939#1 867690001 179382953#2 867677206#0 867677206#1 867677206#2 868514207#4 868514207#0 939110695 -179382944 -179382950#4 -179382950#3 -179382950#2 -179382950#1 -179382956"/>
    </vehicle>
    <vehicle id="10" depart="25.00">
        <route edges="926333538 -926333538 -250748219#7 -250748219#6 -250748219#5 -250748219#4 -250748219#3 -250748219#2 -250748219#1 -250748219#0 34436997#8 34436997#9 34437000 34436998#1 34436998#2 34436998#3 34436998#4 931540318 1254482568 34437003 38199634 38199635#0 38199635#1 38199635#2 38199635#3 679082193#0 679082193#1 533480215#0 533480215#1 -926333542#2 -926333542#1 -926333542#0"/>
    </vehicle>
    <vehicle id="11" depart="27.50">
        <route edges="-173082284#4 -173082284#3 -173082284#2 -173082284#1 -173082284#0 173082279#3 -546120060 185218780#1 -520721277#0 520723607#2 520721276#0 520721276#1 520721276#2 520721275#0 520721275#1 520723612 520723613#0 520723613#1 520723613#2 546102321#0 546102321#1 546102321#2 -173070264#3 -173070264#2 -173070264#1 -173070264#0 -185536389#18 -185536389#17 -185536389#16 -185536389#15 -185536389#14 -185536389#13 -185536389#12 -185536389#11 -185536389#10 -185536389#9 -185536389#8 -185536389#7 -185536389#6 -185536389#5 -185536389#4 -185536389#3 -185536389#2 -185536389#1 -185536389#0 -173070262#2 -173070262#1 -173070262#0 -578258726#3 -578258726#2 -578258726#1 -578258726#0 -444985900 924108759 826633769#0 826633769#1 826633769#2 826633769#3 942997683#0 942997683#1 942997683#2 649207605#1 649207604 445256666 445256665#0 445256665#1 445256665#2 164242564 164242577#0 521107878#0 521107878#1 173085071 173085000#2 173084999 173085002#4 866889070 173085077#0 173085077#1 173085077#2 -173085077#2"/>
    </vehicle>
    <vehicle id="12" depart="30.00">
        <route edges="478502388 -478502388 -251663296#3 -251663296#2 -251663296#1 477798905 251663315 478497226#4 38002154#0 38002154#1 38002154#2 38002154#3 765222323#0 161133663#0 161133663#1 -1426668795#1 -1426668795#0 -161133656 -1445460939 1426668790 161133265#0 161133265#1 161133265#2 1426668793#0 1426668793#1 1426668793#2 1426668791 404985936 720863733#0 1426668786 161133255 161133276 474417265 474417266#0 474417266#1 161133669 868510985 161133664 720863730 164242563 164242567#0 164242567#1 164242567#2 164242567#3 164242567#4 82454382#0 82454382#1 82454382#2 82454382#3 164242562 164242576#0 164242576#1 164242576#2 164242576#3 445256664 649207603 173070285 827081738 827081737 826633771#0 826633771#1 826633771#2 444985904#0 444985904#1 444985904#2 444985904#3 444985904#4 444985902#0 444985902#1 444985902#2 444985902#3 444985902#4 444985902#5 444985902#6 444985902#7 444985902#8 444985902#9 444985902#10 444985902#11 186714290#0 186714290#1"/>
    </vehicle>
    <vehicle id="13" depart="32.50">
        <route edges="444987060 444985905 520929005#0 520929005#1 520929005#2 520929005#3 826633768#0 826633768#1 173070167 826633769#0 826633769#1 826633769#2 826633769#3 942997683#0 942997683#1 942997683#2 649207605#1 649207604 445256666 445256665#0 445256665#1 445256665#2 164242564 164242577#0 164242577#1 134658993#0 134658993#1 134658993#2 134658993#3 720863729#0 720863729#1 164242561 164242575#0 164242575#1 478522434 478509062#0 478509062#1 478509062#2 868960422 868960421 355829978#1 355829978#2 355829978#3 355829978#4 355829978#5 355829978#6 355829978#7"/>
    </vehicle>
    <vehicle id="14" depart="35.00">
        <route edges="1303467833 179324860#2 179324860#3 179324860#4 179324860#5 179324860#6 250522914#0 250522914#1 17762684#4 17762684#5 17762684#6 17762684#0 867292283 438631414#1 438631412#5 438631412#6 438631412#0 438631412#1 438631410 683582947 683582950 683582960 839417384#0 839417384#1 683582965#0 683582965#1 211199030#2 211199030#3 211198038#0 211198038#1 975240014#0 975240014#1 975240014#2 34424721 975240013 14052281#0 14052281#1 975240011 975240022 14051747#0 14052227#0 14052227#1 14052227#2 14052227#3 14052227#4 14052227#5 14052227#6 975251293#0 975251293#1 461618027 478357775#3 478357775#4 37948706#0 37948706#1 37948706#2 438664842#1 253236487 253236495#5 438664820 -224404646#1 -224404646#0 438664822#0 438664822#1 438664822#2 438664822#3 438664822#4 438664822#5 224404654#0 224404654#1 257084484#0 224404651 176698791#2 224404648#0 257086703 257086707#0 867296274 257086698 867296269 867296273 257086697#5 257086697#6 257086697#7 438655098 -176698752#10 -176698752#9 -176698752#8 -176698752#7 -176698752#6 -176698752#5 -176698752#4 438655102 176698763#4 176698752#3"/>
    </vehicle>
    <vehicle id="15" depart="37.50">
        <route edges="474208084#2 390069864#3 -256346917#2 -256346917#1 -256346917#0 256346914 390056270#0 390056270#1 390056270#2 866917174 378725880 866917173 179382241#4 179382241#0 256346901 211200110#4 211200110#5 253654878 217822152#1 217822152#2 154971570 376561758 866917168 866917167 378394448#0 378394448#1 968250062 968250061 253654866#6 253654863#4 227938527#2"/>
    </vehicle>
    <vehicle id="16" depart="40.00">
        <route edges="520721274#1 173070196#1 546102321#0 546102321#1 546102321#2 -173070264#3 -173070264#2 -173070264#1 -173070264#0 -185536389#18 -185536389#17 -185536389#16 -185536389#15 -185536389#14 -185536389#13 -185536389#12 -185536389#11 -185536389#10 -185536389#9 -185536389#8 -185536389#7 -185536389#6 -185536389#5 -185536389#4 -185536389#3 -185536389#2 -185536389#1 -185536389#0 -173070262#2 -173070262#1 -173070262#0 -578258726#3 -578258726#2 -578258726#1 -578258726#0 -444985900 924108759 826633769#0 826633769#1 826633769#2 826633769#3 942997683#0 942997683#1 942997683#2 649207605#1 649207604 445256666 445256665#0 228096636#0 444984216 444984212#2 444984215 444984218#0 444984218#1 868641694 173206850 443214287 443214674 443214673#0 443214673#1 443214672#0 443214672#1 443214672#2 443214672#3 443214672#4 14051396 151171714 151171711 14051701 151171698#0 151171698#1 151171698#2 151171698#3 975251292#0 975251292#1 975251292#2 14051747#0 14051747#1 14051747#2 14051747#3 14051747#4 14052359#0 14052359#1 15066323 866942785 211198655#0 211198655#1 211198655#2 211198655#3 211198655#4 211198655#5 211198655#6 211199101 211199100#0 211199100#1 211200111 351677290 389909093#3 389909099 179324891#0 179324891#1 179324891#2 179324891#3 179324891#4 179324891#5"/>
    </vehicle>
    <vehicle id="17" depart="42.50">
        <route edges="257104038#2 257156305#0 257164855#2 257164855#3 257164855#4 257164855#5 256168392#1 256168392#2 256168390#0 256168390#1 256168390#2 256168390#3 256168390#4 256168390#5 256168390#6 256168390#7 583396841#0 583396841#1 583396841#2 583396840 217822152#0 217822152#1 217822152#2 217822152#3 217822152#4 217822152#5 217822152#6 217822152#7 217822152#8 217822152#9 217822152#10 217822152#11 211199029 211199030#0 211199030#1 211199030#2 211199030#3 211198038#0 211198038#1 975240014#0 975240014#1 975240014#2 37354723#0 17761744#0 17761744#1 14051843#5 14051843#6 975251312#0 975251312#1 975251312#2 975251312#3 975251312#4 461611213 461611211#0 461611211#1 14051964#0 14051964#1 14051964#2 14051343 975240023#0 479897915 39271386#0 39271386#1 1338288458 1338288457 459458140 173206872 459458141 443214820#0 443214820#1 868641693 173206881#0 173206881#1 444985890 173206825 173206828#0 173206828#1 173085000#0 173085037 82454382#3 164242562 164242576#0 164242576#1 164242576#2 164242576#3 445256664 649207603 649207602#0 649207602#1 445256663#0 445256663#1 444987071#1 173070220 -1165578694 173070140 173070281#2 578258726#1 578258726#2 578258726#3 173070262#0 173070262#1 173070262#2 -173070262#2"/>
    </vehicle>
    <vehicle id="18" depart="45.00">
        <route edges="-257104005 -257103989#2 -257103989#1 -257103989#0 257103995 257104010#5 257104010#6 257104010#7 257104010#0 257104010#1 257104039 256168390#1 256168390#2 256168390#3 256168390#4 256168390#5 256168390#6 256168390#7 583396841#0 583396841#1 583396841#2 583396840 217822152#0 217822152#1 217822152#2 217822152#3 217822152#4 217822152#5 217822152#6 217822152#7 217822152#8 217822152#9 217822152#10 217822152#11 211199029 211199030#0 211199030#1 211199030#2 211199030#3 211198038#0 211198038#1 975240014#0 975240014#1 975240014#2 37354723#0 17761744#0 17761744#1 14051843#5 14051843#6 975251312#0 975251312#1 975251312#2 975251312#3 975251312#4 461611213 461611211#0 461611211#1 14051964#0 14051964#1 14051302 38000382#0 38000382#1 704397191#0 704397191#1 -836660894 -164107687 -471543041#2 -471543041#1 -471543041#0 -471543040 -471543022 -164107681#1 -164107681#0 -836738797 -164107654 1417036038 1214281466#0 1184412921 1417036564 1417036027 1417036030 184233294 1417036028 1417036035 1417036036 870318703 445221161#0 445221161#1 445221161#2 184233298#0 184233298#1 445251189#0 445251189#1 445251189#2 445251189#3 445251189#4 445251189#5 479293768#0 479293768#1 479293768#2 479293768#3 479293768#4 -479293768#4 -479293768#3"/>
    </vehicle>
    <vehicle id="19" depart="47.50">
        <route edges="-173194580#1 -173194580#0 682552534#5 864727951 488119148#1 488119148#2 488119148#3 996746292 676675791 996746299#0 996746299#1 996746299#2 134658990#1 134658990#2 134658987#0 134658987#1 134658987#2 134658987#3 134658987#4 134658987#5 134658993#1 134658993#2 134658993#3 720863729#0 720863729#1 164242561 164242575#0 164242575#1 478522434 478509062#0 478509062#1 478509062#2 868960422 868960421 355829978#1 445107676 868960419 -445107680#4"/>
    </vehicle>
    <vehicle id="20" depart="50.00">
        <route edges="250617782#4 1227797973#3 1227797973#4 622918272#0 622918272#1 250617818 1222101433#4 477798908#0 477798908#1 1158181812#1 248878624#0 248878624#1 248878624#2 38199632#0 38199632#1 38199632#2 931540321 931560246#0 931560246#1 931560246#2 931560247 1221983748 1221983747 931560245#0 931560245#1 931560245#2 931560245#3 931560245#4 931560245#5 931560245#6 931560245#7 34437006 34437008 34437009 438897986#0 351752553 17761223#4 17761223#5 17761223#6 438897985#0 438897985#1 14051525#2 14051525#3 975251310 15059198#0 15059198#1 15059198#2 15059198#3 15059198#4 15059198#5 975251309 478352926 -867170875 -869073782 -867170874 867170876 975251295 975251294#0 975251294#1 975251294#2 478357775#0 478357775#1 478357775#2 478357775#3 478357775#4 37948706#0 37948706#1 37948706#2 438664842#1 253236487 253236495#5 253236495#0 253236495#1 253236511 253236490#0 253236490#1 255076144 939474847 255076145#1 255076145#2 255076145#3 255076145#4 1222102109 1222102108#0 1222102108#1"/>
    </vehicle>
    <vehicle id="21" depart="52.50">
        <route edges="1227811019 184233296 445221162 474424118 870318698 445255310 445221158#0 445221158#1 184233293#0 164107683#0 164107683#1 164107622 1417036039 164107654 836738797 164107681#0 164107681#1 471543022 471543040 471543041#0 471543041#1 471543041#2 164107687 836660894 38000364#0 38000364#1 38000364#2 704397192#0 704397192#1 480940008 975251299 480940009 975251298 429984670 941470710 429984623#0 941470708 940471408#0 940471408#1 224404641#0 224404641#1 224404641#2 224404641#3 253160213#0 253160213#1 941475341 867296276 1183321624 867296275#0 867296275#1 941571006 941571002 941571005#3 941571004 253160219#0 253160219#1 253160180#0 253160180#1 253160180#2 253160179#2 253160177 253160165#6 253160165#7 253160165#0 253160175 -253160167#5 -253160167#4 -253160167#3 -253160167#2 941521175 -253160188#0"/>
    </vehicle>
    <vehicle id="22" depart="55.00">
        <route edges="-390076907 390076907 179382237#1 866917171 378394446#0 378394446#1 217822152#7 217822152#8 217822152#9 217822152#10 217822152#11 211199029 211199030#0 211199030#1 211199030#2 211199030#3 211198038#0 211198038#1 975240014#0 975240014#1 975240014#2 34424721 975240013 14052281#0 14052281#1 975240011 975240022 14051747#0 14052227#0 14052227#1 14052227#2 14052227#3 143975461#0 143975461#1 143975461#2 143975461#3 143975461#4 143975461#5 143975461#6 143975461#7 143975461#8 17760774#4 445261375 867170874"/>
    </vehicle>
    <vehicle id="23" depart="57.50">
        <route edges="250748247#3 -250748249#3 -250748249#2 -250748249#1 -250748249#0 250748222#1 1303798299 15062178#6 15062178#7 15062178#8 15062178#0 15062178#1 15062178#2 649233806 -248878625 250748244#0 250748244#1 250748244#2 250748244#3 250748244#4 250748244#5 1103152800 34437008 34437009 438897986#0 438897986#1 438897986#2 438897986#3 438897986#4 438897986#5 461611211#0 461611211#1 14051964#0 14051964#1 14051302 38000382#0 38000382#1 704397191#0 704397191#1 -836660894 -164107687 -471543041#2 -471543041#1 -471543041#0 -471543040 -471543022 -164107681#1 -164107681#0 -836738797 -164107654 1417036038 1214281466#0 1184412921 1417036564 1417036027 1417036030 184233294 1417036028 1417036035 1417036036 870318703 445221161#0 445221161#1 445221161#2 184233298#0 184233298#1 445251190#0 445251190#1 445251190#2 445251190#3 445251190#4 445251190#5 445251190#6 445251190#7 24654408#0 24654408#1 24654408#2 226666839#0 226666839#1 226666839#2 724805661 724805660#0 724805660#1 724805660#2 935451162#0 223368086#0 223368086#1 544154869#1 159598282#3 159598282#4 159598282#5 159598282#6 159607474#0 191005410"/>
    </vehicle>
    <vehicle id="24" depart="60.00">
        <route edges="-187211172#2 173080537#2 -173076972#6 -173076972#5 -173076972#4 -173076972#3 -173076972#2 -173076972#1 -173076972#0 -173076971#4 -173076971#3 -173076971#2 -173076971#1 -173076971#0 -444987069#2 -444987069#1 -444987069#0 740569957 444985904#0 826633772 826633769#2 826633769#3 942997683#0 942997683#1 942997683#2 649207605#1 649207604 445256666 445256665#0 445256665#1 445256665#2 164242564 164242577#0 164242577#1 134658993#0 134658993#1 134658993#2 134658993#3 720863729#0 720863729#1 164242561 164242575#0 164242575#1 478522434 478509062#0 478509062#1 478509062#2 868960422 868960421 355829978#1 355829978#2 355829978#3 355829978#4 355829978#5 355829978#6 355829978#7 355829978#8 355829978#9 355829978#10 355829978#11"/>
    </vehicle>
    <vehicle id="25" depart="62.50">
        <route edges="-185303832#2 -185303832#1 -185303832#0 -173070171#0 -173070105#5 -173070248#3 -173070248#2 -173070248#1 -173070248#0 444987070#0 444987070#1 444987070#2 444987070#3 444987070#4 444987070#5 164107622 1417036039 164107654 836738797 164107681#0 471543036#0 471543037 -964177019 471543028#0 471543028#1 964177020 924641509 412127856#0 464226893 547231188 547231180#2 870007160#0 1331924991 1324891328 1324891330"/>
    </vehicle>
    <vehicle id="26" depart="65.00">
        <route edges="967810339#0 -967810339#0 -173076972#5 -173076972#4 -173076972#3 -173076972#2 -173076972#1 -173076972#0 -173076971#4 -173076971#3 -173076971#2 -173076971#1 -173076971#0 -444987069#2 -444987069#1 -444987069#0 740569957 444985904#0 826633772 826633769#2 826633769#3 942997683#0 942997683#1 942997683#2 649207605#1 649207604 445256666 445256665#0 445256665#1 445256665#2 164242564 164242577#0 164242577#1 134658993#0 134658993#1 134658993#2 134658993#3 164242556 868510986 720863731 161133270 161133667 238948426 238948433 161133256#0 161133256#1 478507562#0 257805847 478502394 478502395 15062178#2 649233806 -248878625 250748244#0 250748244#1 250748244#2 250748244#3 250748244#4 250748244#5"/>
    </vehicle>
    <vehicle id="27" depart="67.50">
        <route edges="176698753 257086696 257086697#7 257086697#8 257086697#0 257086697#1 257086697#2 257086697#3 867296272 257086700 867296270 867296271 257086707#2 438655109 176698769#1 176698769#2 176698769#3 176698769#4 176698769#5 176698769#6 224404646#0 224404646#1 438664821 253236495#1 253236495#2 253236495#3 253236518 438664842#3 438664842#4 438664842#5 37948707 17760770#0 17760770#1 17760770#2 14052429#0 14052429#1 14052429#2 14051747#2 14051747#3 14051747#4 14052359#0 14052359#1 15066323 866942785 211198655#0 211198655#1 211198655#2 211198655#3 211198655#4 211198655#5 211198655#6 211199101 211199100#0 211199100#1 211200111 211200131 179324849 211200110#0 211200110#1 211200110#2 256346929 179382241#2 256346911 866917175 866917176 378725885#0 378725885#1 378725885#2 378725885#3 378725885#4 390056273 390056272#0 390056272#1 390056272#2 390056272#3 390056272#4 256346928#0 256346926#0 256346926#1"/>
    </vehicle>
    <vehicle id="28" depart="70.00">
        <route edges="477798916 -250748188#4 -250748188#3 -250748188#2 -250748188#1 -250748188#0 -926333538 -250748219#7 -250748219#6 -250748219#5 -250748219#4 -250748219#3 -250748219#2 -250748219#1 -250748219#0 34436997#8 34436997#9 34437000 34436998#1 34437001 931560245#0 931560245#1 931560245#2 931560245#3 931560245#4 931560245#5 931560245#6 931560245#7 931560245#8 1241866571 1241866569#0 1241866569#1 238948416#0 238948416#1 238948416#2 136457414#1 136457414#2 136457414#3 238948418 1246124041 1246124038#0 1246124038#1 1246124038#2 238948417 868519514 -173206753 408603450#0"/>
    </vehicle>
    <vehicle id="29" depart="72.50">
        <route edges="-257104022 257104010#6 257104010#7 257104010#0 257104010#1 257104039 256168390#1 256168390#2 256168390#3 256168390#4 256168390#5 256168390#6 256168390#7 583396841#0 583396841#1 583396841#2 583396840 217822152#0 217822152#1 217822152#2 217822152#3 217822152#4 217822152#5 217822152#6 217822152#7 217822152#8 217822152#9 217822152#10 217822152#11 211199029 211199030#0 211199030#1 211199030#2 211199030#3 211198038#0 211198038#1 975240014#0 975240014#1 975240014#2 37354723#0 17761744#0 17761744#1 14051843#5 14051843#6 975251312#0 975251312#1 975251312#2 975251312#3 975251312#4 461611213 461611211#0 461611211#1 14051964#0 14051964#1 14051302 38000382#0 38000382#1 704397191#0 704397191#1 -836660894 -164107687 -471543041#2 -471543041#1 -471543041#0 -471543040 -471543022 -164107681#1 -164107681#0 -836738797 -164107654 1417036038 1214281466#0 1184412921 1417036564 1417036027 1356731502 164107625#1 164107625#2 164107625#3 164107625#4 1417036034 474424362#0 474424362#1 -100070024 100070021#3 -173070190#1 -173070190#0"/>
    </vehicle>
    <vehicle id="30" depart="75.00">
        <route edges="-547234542 547234541#0 547234541#1 -173206858#1 -173206858#0 870330819#2 870330819#3 870330819#4 547231173 -164107681#1 -164107681#0 -836738797 -164107654 1417036038 1214281466#0 1214281466#1 1214281465 1417036037 1032064077#0 1032064077#1 1032064077#2 1032064077#3 445221159#0 445221159#1 444987072 649207605#0 649207605#1 649207604 445256666 445256665#0 445256665#1 445256665#2 164242564 164242577#0 164242577#1 134658993#0 134658993#1 134658993#2 134658993#3 164242556 868510986 720863731 161133270 161133667 238948426 238948433 161133256#0 161133256#1 478507562#0 478507562#1 478507562#2 1426668788#0 1426668788#1 404981173 461600833#0 461600833#1 461600833#2 1445460939 161133656 1426668795#0 1426668795#1 161133662#0 161133662#1 765222320 765222322 1222101435 1222101434 1222101433#0 478502392 478502393 -408621406#1 -408621406#0"/>
    </vehicle>
    <vehicle id="31" depart="77.50">
        <route edges="-253160217#2 253160217#2 253160220#0 253160220#1 253160220#2 831297428 941571014#0 941571014#1 867296278#0 867296278#1 867296277 941475342 253160210#0 253160210#1 941634969 -224404641#1 -224404641#0 -940471408#1 -940471408#0 941470707 429984623#2 176698791#0 176698791#1 176698791#2 224404648#0 224404648#1 176698769#0 176698769#1 176698769#2 176698769#3 176698769#4 176698769#5 176698769#6 224404646#0 676594760 253236490#1 255076144 389736739 389736742#1 841726703 389736741#0 979819185#0 979819185#1 255076129#0 255076129#1 255076129#2 255076129#3 255076129#4 255076129#5 389898329#1 389898329#2 389898329#3 867606354#0 867606354#1 867606353 867606352#0 867606352#1 867606352#2 255102687#0 867677209"/>
    </vehicle>
    <vehicle id="32" depart="80.00">