<additional>
 <e2Detector id="e2_1731305324_1426668795#0_0" lane="1426668795#0_0" pos="11.34" length="8.00" file="traffic.xml" freq="60"/>
 <e2Detector id="e2_1731305324_-1426668795#1_0" lane="-1426668795#1_0" pos="23.54" length="8.00" file="traffic.xml" freq="60"/>
 <e2Detector id="e2_6335769014_-176716242#1_0" lane="-176716242#1_0" pos="24.17" length="8.00" file="traffic.xml" freq="60"/>
 <e2Detector id="e2_6335769014_176716242#0_0" lane="176716242#0_0" pos="78.14" length="8.00" file="traffic.xml" freq="60"/>
 <e2Detector id="e2_6335734527_-176716257#1_0" lane="-176716257#1_0" pos="224.65" length="8.00" file="traffic.xml" freq="60"/>
 <e2Detector id="e2_6335734527_176716257#0_0" lane="176716257#0_0" pos="211.77" length="8.00" file="traffic.xml" freq="60"/>
 <e2Detector id="e2_1839010129_-332465801#4_0" lane="-332465801#4_0" pos="1051.19" length="8.00" file="traffic.xml" freq="60"/>
 <e2Detector id="e2_6041866031_-332465801#5_0" lane="-332465801#5_0" pos="237.40" length="8.00" file="traffic.xml" freq="60"/>
 <e2Detector id="e2_6041866031_332465801#4_0" lane="332465801#4_0" pos="1052.03" length="8.00" file="traffic.xml" freq="60"/>
 <e2Detector id="e2_joinedS_1155107457_1155107577_159603617#1_1" lane="159603617#1_1" pos="353.47" length="8.00" file="traffic.xml" freq="60"/>
 <e2Detector id="e2_joinedS_1155107457_1155107577_-445251189#0_0" lane="-445251189#0_0" pos="0.37" length="8.00" file="traffic.xml" freq="60"/>
 <e2Detector id="e2_joinedS_1155107457_1155107577_159603617#1_2" lane="159603617#1_2" pos="353.47" length="8.00" file="traffic.xml" freq="60"/>
 <e2Detector id="e2_joinedS_1155107457_1155107577_184233298#1_1" lane="184233298#1_1" pos="46.22" length="8.00" file="traffic.xml" freq="60"/>
 <e2Detector id="e2_joinedS_1155107457_1155107577_-99907243_0" lane="-99907243_0" pos="0.00" length="8.00" file="traffic.xml" freq="60"/>
 <e2Detector id="e2_joinedS_1155107457_1155107577_159603617#1_0" lane="159603617#1_0" pos="353.47" length="8.00" file="traffic.xml" freq="60"/>
 <e2Detector id="e2_joinedS_1155107457_1155107577_99907243_0" lane="99907243_0" pos="0.00" length="8.00" file="traffic.xml" freq="60"/>
 <e2Detector id="e2_joinedS_1155107457_1155107577_184233298#1_0" lane="184233298#1_0" pos="46.22" length="8.00" file="traffic.xml" freq="60"/>
 <e2Detector id="e2_12291892219_-471543041#1_0" lane="-471543041#1_0" pos="306.89" length="8.00" file="traffic.xml" freq="60"/>
 <e2Detector id="e2_12291892219_471543041#0_0" lane="471543041#0_0" pos="39.45" length="8.00" file="traffic.xml" freq="60"/>
 <e2Detector id="e2_1839066883_479293768#1_0" lane="479293768#1_0" pos="135.88" length="8.00" file="traffic.xml" freq="60"/>
 <e2Detector id="e2_1839066883_-479293768#2_0" lane="-479293768#2_0" pos="0.00" length="8.00" file="traffic.xml" freq="60"/>
 <e2Detector id="e2_13001716731_-479293768#3_0" lane="-479293768#3_0" pos="331.11" length="8.00" file="traffic.xml" freq="60"/>
 <e2Detector id="e2_13001716731_479293768#2_0" lane="479293768#2_0" pos="0.00" length="8.00" file="traffic.xml" freq="60"/>
 <e2Detector id="e2_5076412028_1032064076#0_1" lane="1032064076#0_1" pos="462.24" length="8.00" file="traffic.xml" freq="60"/>
 <e2Detector id="e2_5076412028_1032064076#0_0" lane="1032064076#0_0" pos="462.24" length="8.00" file="traffic.xml" freq="60"/>
 <e2Detector id="e2_1838952197_1032064076#1_0" lane="1032064076#1_0" pos="442.02" length="8.00" file="traffic.xml" freq="60"/>
 <e2Detector id="e2_1838952197_1032064076#1_1" lane="1032064076#1_1" pos="442.02" length="8.00" file="traffic.xml" freq="60"/>
 <e2Detector id="e2_6758072698_1032064077#0_0" lane="1032064077#0_0" pos="55.01" length="8.00" file="traffic.xml" freq="60"/>
 <e2Detector id="e2_6758072698_1032064077#0_1" lane="1032064077#0_1" pos="55.01" length="8.00" file="traffic.xml" freq="60"/>
 <e2Detector id="e2_6758072698_1032064077#0_2" lane="1032064077#0_2" pos="55.01" length="8.00" file="traffic.xml" freq="60"/>
 <e2Detector id="e2_5076412049_1032064077#1_0" lane="1032064077#1_0" pos="38.19" length="8.00" file="traffic.xml" freq="60"/>
 <e2Detector id="e2_5076412049_1032064077#1_1" lane="1032064077#1_1" pos="38.19" length="8.00" file="traffic.xml" freq="60"/>
 <e2Detector id="e2_5076412048_1032064077#3_0" lane="1032064077#3_0" pos="27.97" length="8.00" file="traffic.xml" freq="60"/>
 <e2Detector id="e2_5076412048_838530635_0" lane="838530635_0" pos="49.58" length="8.00" file="traffic.xml" freq="60"/>
 <e2Detector id="e2_5076412048_1032064077#3_1" lane="1032064077#3_1" pos="27.97" length="8.00" file="traffic.xml" freq="60"/>
 <e2Detector id="e2_11000929498_1184373032#2_0" lane="1184373032#2_0" pos="204.13" length="8.00" file="traffic.xml" freq="60"/>
 <e2Detector id="e2_joinedS_1838952204_8750827855_1214281466#1_0" lane="1214281466#1_0" pos="35.91" length="8.00" file="traffic.xml" freq="60"/>
 <e2Detector id="e2_joinedS_1838952204_8750827855_444987070#3_0" lane="444987070#3_0" pos="46.63" length="8.00" file="traffic.xml" freq="60"/>
 <e2Detector id="e2_joinedS_1838952204_8750827855_444987070#3_1" lane="444987070#3_1" pos="46.63" length="8.00" file="traffic.xml" freq="60"/>
 <e2Detector id="e2_joinedS_1838952204_8750827855_164107683#0_0" lane="164107683#0_0" pos="49.35" length="8.00" file="traffic.xml" freq="60"/>
 <e2Detector id="e2_joinedS_1838952204_8750827855_164107683#1_0" lane="164107683#1_0" pos="0.00" length="8.00" file="traffic.xml" freq="60"/>
 <e2Detector id="e2_5994060700_1222101433#0_0" lane="1222101433#0_0" pos="524.50" length="8.00" file="traffic.xml" freq="60"/>
 <e2Detector id="e2_5994060700_1222101433#0_1" lane="1222101433#0_1" pos="524.50" length="8.00" file="traffic.xml" freq="60"/>
 <e2Detector id="e2_446317137_1222101433#5_1" lane="1222101433#5_1" pos="49.79" length="8.00" file="traffic.xml" freq="60"/>
 <e2Detector id="e2_446317137_1222101433#5_0" lane="1222101433#5_0" pos="49.79" length="8.00" file="traffic.xml" freq="60"/>
 <e2Detector id="e2_1732485859_1222101433#6_0" lane="1222101433#6_0" pos="11.11" length="8.00" file="traffic.xml" freq="60"/>
 <e2Detector id="e2_1732485859_1222101433#6_1" lane="1222101433#6_1" pos="11.11" length="8.00" file="traffic.xml" freq="60"/>
 <e2Detector id="e2_1732485855_1227797973#0_0" lane="1227797973#0_0" pos="481.68" length="8.00" file="traffic.xml" freq="60"/>
 <e2Detector id="e2_1732485855_1227797973#0_1" lane="1227797973#0_1" pos="481.68" length="8.00" file="traffic.xml" freq="60"/>
 <e2Detector id="e2_1732485867_1227797973#1_1" lane="1227797973#1_1" pos="91.49" length="8.00" file="traffic.xml" freq="60"/>
 <e2Detector id="e2_1732485867_1227797973#1_0" lane="1227797973#1_0" pos="91.49" length="8.00" file="traffic.xml" freq="60"/>
 <e2Detector id="e2_1732485874_1227797973#2_0" lane="1227797973#2_0" pos="5.55" length="8.00" file="traffic.xml" freq="60"/>
 <e2Detector id="e2_1732485874_1227797973#2_1" lane="1227797973#2_1" pos="5.55" length="8.00" file="traffic.xml" freq="60"/>
 <e2Detector id="e2_1732485835_1227797976_1" lane="1227797976_1" pos="0.00" length="8.00" file="traffic.xml" freq="60"/>
 <e2Detector id="e2_1732485835_1227797976_0" lane="1227797976_0" pos="0.00" length="8.00" file="traffic.xml" freq="60"/>
 <e2Detector id="e2_446318641_1227797978_1" lane="1227797978_1" pos="0.31" length="8.00" file="traffic.xml" freq="60"/>
 <e2Detector id="e2_446318641_1227797978_0" lane="1227797978_0" pos="0.31" length="8.00" file="traffic.xml" freq="60"/>
 <e2Detector id="e2_959685075_1227811018#0_0" lane="1227811018#0_0" pos="567.29" length="8.00" file="traffic.xml" freq="60"/>
 <e2Detector id="e2_959685075_1227811018#0_2" lane="1227811018#0_2" pos="567.29" length="8.00" file="traffic.xml" freq="60"/>
 <e2Detector id="e2_959685075_1227811018#0_1" lane="1227811018#0_1" pos="567.29" length="8.00" file="traffic.xml" freq="60"/>
 <e2Detector id="e2_959685061_1227811018#1_1" lane="1227811018#1_1" pos="25.23" length="8.00" file="traffic.xml" freq="60"/>
 <e2Detector id="e2_959685061_1227811018#1_2" lane="1227811018#1_2" pos="25.23" length="8.00" file="traffic.xml" freq="60"/>
 <e2Detector id="e2_959685061_1227811018#1_0" lane="1227811018#1_0" pos="25.23" length="8.00" file="traffic.xml" freq="60"/>
 <e2Detector id="e2_joinedS_959685103_959685127_173070253#1_1" lane="173070253#1_1" pos="0.00" length="8.00" file="traffic.xml" freq="60"/>
 <e2Detector id="e2_joinedS_959685103_959685127_1227811019_1" lane="1227811019_1" pos="178.22" length="8.00" file="traffic.xml" freq="60"/>
 <e2Detector id="e2_joinedS_959685103_959685127_445221161_0" lane="445221161_0" pos="298.22" length="8.00" file="traffic.xml" freq="60"/>
 <e2Detector id="e2_joinedS_959685103_959685127_1227811019_0" lane="1227811019_0" pos="178.22" length="8.00" file="traffic.xml" freq="60"/>
 <e2Detector id="e2_joinedS_959685103_959685127_173070253#0_0" lane="173070253#0_0" pos="6.29" length="8.00" file="traffic.xml" freq="60"/>
 <e2Detector id="e2_joinedS_959685103_959685127_173070253#1_0" lane="173070253#1_0" pos="0.00" length="8.00" file="traffic.xml" freq="60"/>
 <e2Detector id="e2_joinedS_959685103_959685127_173070253#0_1" lane="173070253#0_1" pos="6.29" length="8.00" file="traffic.xml" freq="60"/>
 <e2Detector id="e2_148575328_1337832769#1_0" lane="1337832769#1_0" pos="101.00" length="8.00" file="traffic.xml" freq="60"/>
 <e2Detector id="e2_446304418_1338288458_1" lane="1338288458_1" pos="0.00" length="8.00" file="traffic.xml" freq="60"/>
 <e2Detector id="e2_446304418_1338288458_0" lane="1338288458_0" pos="0.00" length="8.00" file="traffic.xml" freq="60"/>
 <e2Detector id="e2_5077983129_134658987#3_0" lane="134658987#3_0" pos="18.74" length="8.00" file="traffic.xml" freq="60"/>
 <e2Detector id="e2_5077983129_164242567#2_1" lane="164242567#2_1" pos="2.06" length="8.00" file="traffic.xml" freq="60"/>
 <e2Detector id="e2_5077983129_164242567#2_0" lane="164242567#2_0" pos="2.06" length="8.00" file="traffic.xml" freq="60"/>
 <e2Detector id="e2_5077983129_134658987#3_1" lane="134658987#3_1" pos="18.74" length="8.00" file="traffic.xml" freq="60"/>
 <e2Detector id="e2_1758896260_134658993#0_1" lane="134658993#0_1" pos="654.42" length="8.00" file="traffic.xml" freq="60"/>
 <e2Detector id="e2_1758896260_134658993#0_0" lane="134658993#0_0" pos="654.42" length="8.00" file="traffic.xml" freq="60"/>
 <e2Detector id="e2_1758896260_134658987#4_1" lane="134658987#4_1" pos="9.51" length="8.00" file="traffic.xml" freq="60"/>
 <e2Detector id="e2_1758896260_134658987#4_0" lane="134658987#4_0" pos="9.51" length="8.00" file="traffic.xml" freq="60"/>
 <e2Detector id="e2_5538402200_134667406#4_2" lane="134667406#4_2" pos="0.00" length="8.00" file="traffic.xml" freq="60"/>
 <e2Detector id="e2_5538402200_134667406#4_3" lane="134667406#4_3" pos="0.00" length="8.00" file="traffic.xml" freq="60"/>
 <e2Detector id="e2_5538402200_134667406#4_1" lane="134667406#4_1" pos="0.00" length="8.00" file="traffic.xml" freq="60"/>
 <e2Detector id="e2_5538402200_134667406#4_0" lane="134667406#4_0" pos="0.00" length="8.00" file="traffic.xml" freq="60"/>
 <e2Detector id="e2_184057841_14051843#1-AddedOffRampEdge_1" lane="14051843#1-AddedOffRampEdge_1" pos="26.31" length="8.00" file="traffic.xml" freq="60"/>
 <e2Detector id="e2_184057841_14051843#1-AddedOffRampEdge_0" lane="14051843#1-AddedOffRampEdge_0" pos="26.31" length="8.00" file="traffic.xml" freq="60"/>
 <e2Detector id="e2_10894608836_15059198#0_1" lane="15059198#0_1" pos="136.15" length="8.00" file="traffic.xml" freq="60"/>
 <e2Detector id="e2_10894608836_15059198#0_0" lane="15059198#0_0" pos="136.15" length="8.00" file="traffic.xml" freq="60"/>
 <e2Detector id="e2_joinedS_4715802935_6338439745_408388642-AddedOffRampEdge_1" lane="408388642-AddedOffRampEdge_1" pos="78.30" length="8.00" file="traffic.xml" freq="60"/>
 <e2Detector id="e2_joinedS_4715802935_6338439745_408388642-AddedOffRampEdge_0" lane="408388642-AddedOffRampEdge_0" pos="78.30" length="8.00" file="traffic.xml" freq="60"/>
 <e2Detector id="e2_joinedS_4715802935_6338439745_15065291#3_0" lane="15065291#3_0" pos="0.00" length="8.00" file="traffic.xml" freq="60"/>
 <e2Detector id="e2_6042753185_151171698#0_2" lane="151171698#0_2" pos="296.82" length="8.00" file="traffic.xml" freq="60"/>
 <e2Detector id="e2_6042753185_151171698#0_1" lane="151171698#0_1" pos="296.82" length="8.00" file="traffic.xml" freq="60"/>
 <e2Detector id="e2_6042753185_151171698#0_0" lane="151171698#0_0" pos="296.82" length="8.00" file="traffic.xml" freq="60"/>
 <e2Detector id="e2_5301028828_159603603#0_0" lane="159603603#0_0" pos="223.32" length="8.00" file="traffic.xml" freq="60"/>
 <e2Detector id="e2_1846229831_159603603#1_0" lane="159603603#1_0" pos="3.07" length="8.00" file="traffic.xml" freq="60"/>
 <e2Detector id="e2_1717098953_159603636_3" lane="159603636_3" pos="23.61" length="8.00" file="traffic.xml" freq="60"/>
 <e2Detector id="e2_1717098953_159603636_2" lane="159603636_2" pos="23.61" length="8.00" file="traffic.xml" freq="60"/>
 <e2Detector id="e2_1717098953_445251190#5_0" lane="445251190#5_0" pos="92.00" length="8.00" file="traffic.xml" freq="60"/>
 <e2Detector id="e2_1717098953_159603636_0" lane="159603636_0" pos="23.61" length="8.00" file="traffic.xml" freq="60"/>
 <e2Detector id="e2_1717098953_159603636_1" lane="159603636_1" pos="23.61" length="8.00" file="traffic.xml" freq="60"/>
 <e2Detector id="e2_1717098953_445251190#5_1" lane="445251190#5_1" pos="92.00" length="8.00" file="traffic.xml" freq="60"/>
 <e2Detector id="e2_1717098953_445251190#5_2" lane="445251190#5_2" pos="92.00" length="8.00" file="traffic.xml" freq="60"/>
 <e2Detector id="e2_1717098972_159603638#1_1" lane="159603638#1_1" pos="13.27" length="8.00" file="traffic.xml" freq="60"/>
 <e2Detector id="e2_1717098972_159603638#1_2" lane="159603638#1_2" pos="13.27" length="8.00" file="traffic.xml" freq="60"/>
 <e2Detector id="e2_1717098972_159603638#1_0" lane="159603638#1_0" pos="13.27" length="8.00" file="traffic.xml" freq="60"/>
 <e2Detector id="e2_1717098972_24654408#0_1" lane="24654408#0_1" pos="44.88" length="8.00" file="traffic.xml" freq="60"/>
 <e2Detector id="e2_1717098972_24654408#0_3" lane="24654408#0_3" pos="44.88" length="8.00" file="traffic.xml" freq="60"/>
 <e2Detector id="e2_1717098972_159603638#1_3" lane="159603638#1_3" pos="13.27" length="8.00" file="traffic.xml" freq="60"/>
 <e2Detector id="e2_1717098972_24654408#0_0" lane="24654408#0_0" pos="44.88" length="8.00" file="traffic.xml" freq="60"/>
 <e2Detector id="e2_1717098972_24654408#0_2" lane="24654408#0_2" pos="44.88" length="8.00" file="traffic.xml" freq="60"/>
 <e2Detector id="e2_4427110525_173070208-AddedOffRampEdge_1" lane="173070208-AddedOffRampEdge_1" pos="8.92" length="8.00" file="traffic.xml" freq="60"/>
 <e2Detector id="e2_4427110525_173070208-AddedOffRampEdge_0" lane="173070208-AddedOffRampEdge_0" pos="8.92" length="8.00" file="traffic.xml" freq="60"/>
 <e2Detector id="e2_4427110525_173070208-AddedOffRampEdge_2" lane="173070208-AddedOffRampEdge_2" pos="8.92" length="8.00" file="traffic.xml" freq="60"/>
 <e2Detector id="e2_1156818659_173070226#0-AddedOffRampEdge_2" lane="173070226#0-AddedOffRampEdge_2" pos="79.38" length="8.00" file="traffic.xml" freq="60"/>
 <e2Detector id="e2_1156818659_173070226#0-AddedOffRampEdge_0" lane="173070226#0-AddedOffRampEdge_0" pos="79.38" length="8.00" file="traffic.xml" freq="60"/>
 <e2Detector id="e2_1156818659_173070226#0-AddedOffRampEdge_1" lane="173070226#0-AddedOffRampEdge_1" pos="79.38" length="8.00" file="traffic.xml" freq="60"/>
 <e2Detector id="e2_2626998166_176698769#2_0" lane="176698769#2_0" pos="102.46" length="8.00" file="traffic.xml" freq="60"/>
 <e2Detector id="e2_2626998166_176698769#2_1" lane="176698769#2_1" pos="102.46" length="8.00" file="traffic.xml" freq="60"/>
 <e2Detector id="e2_joinedS_184049290_445662727_17760770#0_0" lane="17760770#0_0" pos="0.00" length="8.00" file="traffic.xml" freq="60"/>
 <e2Detector id="e2_joinedS_184049290_445662727_37948707_0" lane="37948707_0" pos="705.95" length="8.00" file="traffic.xml" freq="60"/>
 <e2Detector id="e2_joinedS_184049290_445662727_478357775#5_0" lane="478357775#5_0" pos="0.00" length="8.00" file="traffic.xml" freq="60"/>
 <e2Detector id="e2_184052443_17761223#4-AddedOffRampEdge_1" lane="17761223#4-AddedOffRampEdge_1" pos="78.99" length="8.00" file="traffic.xml" freq="60"/>
 <e2Detector id="e2_184052443_17761223#4-AddedOffRampEdge_0" lane="17761223#4-AddedOffRampEdge_0" pos="78.99" length="8.00" file="traffic.xml" freq="60"/>
 <e2Detector id="e2_184052443_17761223#4-AddedOffRampEdge_3" lane="17761223#4-AddedOffRampEdge_3" pos="78.99" length="8.00" file="traffic.xml" freq="60"/>
 <e2Detector id="e2_184052443_17761223#4-AddedOffRampEdge_2" lane="17761223#4-AddedOffRampEdge_2" pos="78.99" length="8.00" file="traffic.xml" freq="60"/>
 <e2Detector id="e2_8668899178_191005959#0_0" lane="191005959#0_0" pos="0.00" length="8.00" file="traffic.xml" freq="60"/>
 <e2Detector id="e2_8668899178_191005959#0_2" lane="191005959#0_2" pos="0.00" length="8.00" file="traffic.xml" freq="60"/>
 <e2Detector id="e2_8668899178_191005959#0_1" lane="191005959#0_1" pos="0.00" length="8.00" file="traffic.xml" freq="60"/>
 <e2Detector id="e2_133539380_211198655#2_1" lane="211198655#2_1" pos="9.24" length="8.00" file="traffic.xml" freq="60"/>
 <e2Detector id="e2_133539380_211198655#2_0" lane="211198655#2_0" pos="9.24" length="8.00" file="traffic.xml" freq="60"/>
 <e2Detector id="e2_133539380_211198655#2_2" lane="211198655#2_2" pos="9.24" length="8.00" file="traffic.xml" freq="60"/>
 <e2Detector id="e2_2212089477_211199030#2_0" lane="211199030#2_0" pos="7.99" length="8.00" file="traffic.xml" freq="60"/>
 <e2Detector id="e2_446308548_251803273_0" lane="251803273_0" pos="0.00" length="8.00" file="traffic.xml" freq="60"/>
 <e2Detector id="e2_446308548_251803273_1" lane="251803273_1" pos="0.00" length="8.00" file="traffic.xml" freq="60"/>
 <e2Detector id="e2_2627129339_256168390#0-AddedOffRampEdge_0" lane="256168390#0-AddedOffRampEdge_0" pos="0.00" length="8.00" file="traffic.xml" freq="60"/>
 <e2Detector id="e2_2627129339_256168390#0-AddedOffRampEdge_1" lane="256168390#0-AddedOffRampEdge_1" pos="0.00" length="8.00" file="traffic.xml" freq="60"/>
 <e2Detector id="e2_4425588097_355829978#3_1" lane="355829978#3_1" pos="0.00" length="8.00" file="traffic.xml" freq="60"/>
 <e2Detector id="e2_4425588097_355829978#3_2" lane="355829978#3_2" pos="0.00" length="8.00" file="traffic.xml" freq="60"/>
 <e2Detector id="e2_4425588097_355829978#3_0" lane="355829978#3_0" pos="0.00" length="8.00" file="traffic.xml" freq="60"/>
 <e2Detector id="e2_2367383858_355829978#4_2" lane="355829978#4_2" pos="420.15" length="8.00" file="traffic.xml" freq="60"/>
 <e2Detector id="e2_2367383858_355829978#4_0" lane="355829978#4_0" pos="420.15" length="8.00" file="traffic.xml" freq="60"/>
 <e2Detector id="e2_2367383858_355829978#4_1" lane="355829978#4_1" pos="420.15" length="8.00" file="traffic.xml" freq="60"/>
 <e2Detector id="e2_148579251_38000355_0" lane="38000355_0" pos="11.08" length="8.00" file="traffic.xml" freq="60"/>
 <e2Detector id="e2_148579251_429979390#3_0" lane="429979390#3_0" pos="68.09" length="8.00" file="traffic.xml" freq="60"/>
 <e2Detector id="e2_5538995525_38002151#1_0" lane="38002151#1_0" pos="22.77" length="8.00" file="traffic.xml" freq="60"/>
 <e2Detector id="e2_6817945998_38002451#0_1" lane="38002451#0_1" pos="69.73" length="8.00" file="traffic.xml" freq="60"/>
 <e2Detector id="e2_6817945998_38002451#0_0" lane="38002451#0_0" pos="69.73" length="8.00" file="traffic.xml" freq="60"/>
 <e2Detector id="e2_8080490284_39271386#0-AddedOffRampEdge_0" lane="39271386#0-AddedOffRampEdge_0" pos="5.14" length="8.00" file="traffic.xml" freq="60"/>
 <e2Detector id="e2_8080490284_39271386#0-AddedOffRampEdge_1" lane="39271386#0-AddedOffRampEdge_1" pos="5.14" length="8.00" file="traffic.xml" freq="60"/>
 <e2Detector id="e2_133514243_39271386#1_1" lane="39271386#1_1" pos="8.32" length="8.00" file="traffic.xml" freq="60"/>
 <e2Detector id="e2_133514243_39271386#1_0" lane="39271386#1_0" pos="8.32" length="8.00" file="traffic.xml" freq="60"/>
 <e2Detector id="e2_joinedS_4292016976_4292016979_4427155300_765184593_#1more_405506407#1_0" lane="405506407#1_0" pos="182.70" length="8.00" file="traffic.xml" freq="60"/>
 <e2Detector id="e2_joinedS_4292016976_4292016979_4427155300_765184593_#1more_405506407#2_0" lane="405506407#2_0" pos="0.00" length="8.00" file="traffic.xml" freq="60"/>
 <e2Detector id="e2_joinedS_4292016976_4292016979_4427155300_765184593_#1more_429979390#1_0" lane="429979390#1_0" pos="0.00" length="8.00" file="traffic.xml" freq="60"/>
 <e2Detector id="e2_joinedS_4292016976_4292016979_4427155300_765184593_#1more_429979390#0_0" lane="429979390#0_0" pos="0.00" length="8.00" file="traffic.xml" freq="60"/>
 <e2Detector id="e2_joinedS_4292016976_4292016979_4427155300_765184593_#1more_405506407#3_0" lane="405506407#3_0" pos="0.00" length="8.00" file="traffic.xml" freq="60"/>
 <e2Detector id="e2_joinedS_4292016976_4292016979_4427155300_765184593_#1more_61209884_0" lane="61209884_0" pos="0.46" length="8.00" file="traffic.xml" freq="60"/>
 <e2Detector id="e2_148578688_429979391_0" lane="429979391_0" pos="0.00" length="8.00" file="traffic.xml" freq="60"/>
 <e2Detector id="e2_148578688_429979393#2_0" lane="429979393#2_0" pos="63.91" length="8.00" file="traffic.xml" freq="60"/>
 <e2Detector id="e2_148578688_429979393#2_1" lane="429979393#2_1" pos="63.91" length="8.00" file="traffic.xml" freq="60"/>
 <e2Detector id="e2_joinedS_148575335_148577946_975251308_0" lane="975251308_0" pos="14.27" length="8.00" file="traffic.xml" freq="60"/>
 <e2Detector id="e2_joinedS_148575335_148577946_429979392_0" lane="429979392_0" pos="5.15" length="8.00" file="traffic.xml" freq="60"/>
 <e2Detector id="e2_joinedS_148575335_148577946_975251298_0" lane="975251298_0" pos="109.17" length="8.00" file="traffic.xml" freq="60"/>
 <e2Detector id="e2_148578587_429984670_0" lane="429984670_0" pos="8.46" length="8.00" file="traffic.xml" freq="60"/>
 <e2Detector id="e2_2332218271_438664822#2_1" lane="438664822#2_1" pos="121.45" length="8.00" file="traffic.xml" freq="60"/>
 <e2Detector id="e2_2332218271_438664822#2_0" lane="438664822#2_0" pos="121.45" length="8.00" file="traffic.xml" freq="60"/>
 <e2Detector id="e2_7927170334_443214672#0_0" lane="443214672#0_0" pos="69.00" length="8.00" file="traffic.xml" freq="60"/>
 <e2Detector id="e2_6929701996_443214672#1_0" lane="443214672#1_0" pos="0.00" length="8.00" file="traffic.xml" freq="60"/>
 <e2Detector id="e2_11215456434_443214672#2_0" lane="443214672#2_0" pos="8.38" length="8.00" file="traffic.xml" freq="60"/>
 <e2Detector id="e2_5076412050_444987070#0_1" lane="444987070#0_1" pos="138.54" length="8.00" file="traffic.xml" freq="60"/>
 <e2Detector id="e2_5076412050_444987070#0_0" lane="444987070#0_0" pos="138.54" length="8.00" file="traffic.xml" freq="60"/>
 <e2Detector id="e2_959685054_444987070#1_0" lane="444987070#1_0" pos="72.93" length="8.00" file="traffic.xml" freq="60"/>
 <e2Detector id="e2_959685054_444987070#1_1" lane="444987070#1_1" pos="72.93" length="8.00" file="traffic.xml" freq="60"/>
 <e2Detector id="e2_1838952201_444987070#2_0" lane="444987070#2_0" pos="73.54" length="8.00" file="traffic.xml" freq="60"/>
 <e2Detector id="e2_1838952201_444987070#2_1" lane="444987070#2_1" pos="73.54" length="8.00" file="traffic.xml" freq="60"/>
 <e2Detector id="e2_1946803442_444987070#4_0" lane="444987070#4_0" pos="114.11" length="8.00" file="traffic.xml" freq="60"/>
 <e2Detector id="e2_1946803442_444987070#4_1" lane="444987070#4_1" pos="114.11" length="8.00" file="traffic.xml" freq="60"/>
 <e2Detector id="e2_5076412027_445221159#0_1" lane="445221159#0_1" pos="441.29" length="8.00" file="traffic.xml" freq="60"/>
 <e2Detector id="e2_5076412027_445221159#0_0" lane="445221159#0_0" pos="441.29" length="8.00" file="traffic.xml" freq="60"/>
 <e2Detector id="e2_959685044_445251190#2_0" lane="445251190#2_0" pos="187.82" length="8.00" file="traffic.xml" freq="60"/>
 <e2Detector id="e2_959685044_445251190#2_1" lane="445251190#2_1" pos="187.82" length="8.00" file="traffic.xml" freq="60"/>
 <e2Detector id="e2_959685044_445251190#2_2" lane="445251190#2_2" pos="187.82" length="8.00" file="traffic.xml" freq="60"/>
 <e2Detector id="e2_9703810031_445251190#3_1" lane="445251190#3_1" pos="24.57" length="8.00" file="traffic.xml" freq="60"/>
 <e2Detector id="e2_9703810031_445251190#3_2" lane="445251190#3_2" pos="24.57" length="8.00" file="traffic.xml" freq="60"/>
 <e2Detector id="e2_9703810031_445251190#3_0" lane="445251190#3_0" pos="24.57" length="8.00" file="traffic.xml" freq="60"/>
 <e2Detector id="e2_184049229_478352930#3_0" lane="478352930#3_0" pos="237.05" length="8.00" file="traffic.xml" freq="60"/>
 <e2Detector id="e2_1732485896_478497226#0_0" lane="478497226#0_0" pos="21.08" length="8.00" file="traffic.xml" freq="60"/>
 <e2Detector id="e2_1732485896_478497226#0_2" lane="478497226#0_2" pos="21.08" length="8.00" file="traffic.xml" freq="60"/>
 <e2Detector id="e2_1732485896_478497226#0_1" lane="478497226#0_1" pos="21.08" length="8.00" file="traffic.xml" freq="60"/>
 <e2Detector id="e2_4710980189_478497226#1_0" lane="478497226#1_0" pos="581.93" length="8.00" file="traffic.xml" freq="60"/>
 <e2Detector id="e2_4710980189_765222321_0" lane="765222321_0" pos="14.29" length="8.00" file="traffic.xml" freq="60"/>
 <e2Detector id="e2_4710980189_478497226#1_2" lane="478497226#1_2" pos="581.93" length="8.00" file="traffic.xml" freq="60"/>
 <e2Detector id="e2_4710980189_478497226#1_1" lane="478497226#1_1" pos="581.93" length="8.00" file="traffic.xml" freq="60"/>
 <e2Detector id="e2_4710980189_765222321_1" lane="765222321_1" pos="14.29" length="8.00" file="traffic.xml" freq="60"/>
 <e2Detector id="e2_4710980189_765222321_2" lane="765222321_2" pos="14.29" length="8.00" file="traffic.xml" freq="60"/>
 <e2Detector id="e2_8099563457_478509062#0_1" lane="478509062#0_1" pos="414.43" length="8.00" file="traffic.xml" freq="60"/>
 <e2Detector id="e2_8099563457_478509062#0_0" lane="478509062#0_0" pos="414.43" length="8.00" file="traffic.xml" freq="60"/>
 <e2Detector id="e2_2367380291_478522434_0" lane="478522434_0" pos="183.02" length="8.00" file="traffic.xml" freq="60"/>
 <e2Detector id="e2_2367380291_478522434_1" lane="478522434_1" pos="183.02" length="8.00" file="traffic.xml" freq="60"/>
 <e2Detector id="e2_651116440_51058024#0_2" lane="51058024#0_2" pos="393.65" length="8.00" file="traffic.xml" freq="60"/>
 <e2Detector id="e2_651116440_51058024#0_3" lane="51058024#0_3" pos="393.65" length="8.00" file="traffic.xml" freq="60"/>
 <e2Detector id="e2_651116440_51058024#0_0" lane="51058024#0_0" pos="393.65" length="8.00" file="traffic.xml" freq="60"/>
 <e2Detector id="e2_651116440_51058024#0_1" lane="51058024#0_1" pos="393.65" length="8.00" file="traffic.xml" freq="60"/>
 <e2Detector id="e2_2628338479_583396842#0_0" lane="583396842#0_0" pos="899.70" length="8.00" file="traffic.xml" freq="60"/>
 <e2Detector id="e2_2628338479_583396842#0_1" lane="583396842#0_1" pos="899.70" length="8.00" file="traffic.xml" freq="60"/>
 <e2Detector id="e2_6133119257_654531116#0_0" lane="654531116#0_0" pos="0.00" length="8.00" file="traffic.xml" freq="60"/>
 <e2Detector id="e2_2367358495_724805660#0_0" lane="724805660#0_0" pos="92.03" length="8.00" file="traffic.xml" freq="60"/>
 <e2Detector id="e2_2367358495_724805660#0_2" lane="724805660#0_2" pos="92.03" length="8.00" file="traffic.xml" freq="60"/>
 <e2Detector id="e2_2367358495_724805660#0_1" lane="724805660#0_1" pos="92.03" length="8.00" file="traffic.xml" freq="60"/>
 <e2Detector id="e2_1717098915_724805667#1_0" lane="724805667#1_0" pos="0.00" length="8.00" file="traffic.xml" freq="60"/>
 <e2Detector id="e2_1717098915_724805667#1_1" lane="724805667#1_1" pos="0.00" length="8.00" file="traffic.xml" freq="60"/>
 <e2Detector id="e2_1717098915_724805667#1_2" lane="724805667#1_2" pos="0.00" length="8.00" file="traffic.xml" freq="60"/>
 <e2Detector id="e2_5883183452_931560245#0_1" lane="931560245#0_1" pos="46.55" length="8.00" file="traffic.xml" freq="60"/>
 <e2Detector id="e2_5883183452_931560245#0_0" lane="931560245#0_0" pos="46.55" length="8.00" file="traffic.xml" freq="60"/>
 <e2Detector id="e2_4717230594_931560245#3_1" lane="931560245#3_1" pos="22.45" length="8.00" file="traffic.xml" freq="60"/>
 <e2Detector id="e2_4717230594_931560245#3_0" lane="931560245#3_0" pos="22.45" length="8.00" file="traffic.xml" freq="60"/>
 <e2Detector id="e2_446308547_940573075_3" lane="940573075_3" pos="40.13" length="8.00" file="traffic.xml" freq="60"/>
 <e2Detector id="e2_446308547_940573075_2" lane="940573075_2" pos="40.13" length="8.00" file="traffic.xml" freq="60"/>
 <e2Detector id="e2_446308547_940573075_1" lane="940573075_1" pos="40.13" length="8.00" file="traffic.xml" freq="60"/>
 <e2Detector id="e2_446308547_940573075_0" lane="940573075_0" pos="40.13" length="8.00" file="traffic.xml" freq="60"/>
 <e2Detector id="e2_6042752981_975251312#2_0" lane="975251312#2_0" pos="0.00" length="8.00" file="traffic.xml" freq="60"/>
 <e2Detector id="e2_6060994012_975251312#3_0" lane="975251312#3_0" pos="0.00" length="8.00" file="traffic.xml" freq="60"/>
</additional>