<additional>
 <e2Detector id="e2_1731305324_1426668795#0_0" lane="1426668795#0_0" pos="11.33" length="8.00" file="traffic.xml" freq="60"/>
 <e2Detector id="e2_1731305324_-1426668795#1_0" lane="-1426668795#1_0" pos="23.53" length="8.00" file="traffic.xml" freq="60"/>
 <e2Detector id="e2_joinedS_1838952197_5076412048_-520927620_0" lane="-520927620_0" pos="0.00" length="8.00" file="traffic.xml" freq="60"/>
 <e2Detector id="e2_joinedS_1838952197_5076412048_1032064076#2_1" lane="1032064076#2_1" pos="434.86" length="8.00" file="traffic.xml" freq="60"/>
 <e2Detector id="e2_joinedS_1838952197_5076412048_1032064077#3_0" lane="1032064077#3_0" pos="27.35" length="8.00" file="traffic.xml" freq="60"/>
 <e2Detector id="e2_joinedS_1838952197_5076412048_520927620_0" lane="520927620_0" pos="0.00" length="8.00" file="traffic.xml" freq="60"/>
 <e2Detector id="e2_joinedS_1838952197_5076412048_1032064077#3_1" lane="1032064077#3_1" pos="27.35" length="8.00" file="traffic.xml" freq="60"/>
 <e2Detector id="e2_joinedS_1838952197_5076412048_838530635_0" lane="838530635_0" pos="49.56" length="8.00" file="traffic.xml" freq="60"/>
 <e2Detector id="e2_joinedS_1838952197_5076412048_-173070248#0_0" lane="-173070248#0_0" pos="39.52" length="8.00" file="traffic.xml" freq="60"/>
 <e2Detector id="e2_joinedS_1838952197_5076412048_1032064076#2_0" lane="1032064076#2_0" pos="434.86" length="8.00" file="traffic.xml" freq="60"/>
 <e2Detector id="e2_4051333022_173075809#0_0" lane="173075809#0_0" pos="37.35" length="8.00" file="traffic.xml" freq="60"/>
 <e2Detector id="e2_4051333022_-173075809#1_0" lane="-173075809#1_0" pos="44.33" length="8.00" file="traffic.xml" freq="60"/>
 <e2Detector id="e2_13013893313_-173076972#4_0" lane="-173076972#4_0" pos="0.00" length="8.00" file="traffic.xml" freq="60"/>
 <e2Detector id="e2_13013893313_173076972#3_0" lane="173076972#3_0" pos="0.00" length="8.00" file="traffic.xml" freq="60"/>
 <e2Detector id="e2_13013893314_-173076972#5_0" lane="-173076972#5_0" pos="0.00" length="8.00" file="traffic.xml" freq="60"/>
 <e2Detector id="e2_13013893314_173076972#4_0" lane="173076972#4_0" pos="0.00" length="8.00" file="traffic.xml" freq="60"/>
 <e2Detector id="e2_joinedS_13001716731_13001716732_1839066883_479293768#2_0" lane="479293768#2_0" pos="127.30" length="8.00" file="traffic.xml" freq="60"/>
 <e2Detector id="e2_joinedS_13001716731_13001716732_1839066883_-173082203#1_0" lane="-173082203#1_0" pos="0.00" length="8.00" file="traffic.xml" freq="60"/>
 <e2Detector id="e2_joinedS_13001716731_13001716732_1839066883_173082203#0_0" lane="173082203#0_0" pos="130.83" length="8.00" file="traffic.xml" freq="60"/>
 <e2Detector id="e2_joinedS_13001716731_13001716732_1839066883_479293768#3_0" lane="479293768#3_0" pos="0.00" length="8.00" file="traffic.xml" freq="60"/>
 <e2Detector id="e2_joinedS_13001716731_13001716732_1839066883_-479293768#3_0" lane="-479293768#3_0" pos="0.00" length="8.00" file="traffic.xml" freq="60"/>
 <e2Detector id="e2_joinedS_13001716731_13001716732_1839066883_-479293768#4_0" lane="-479293768#4_0" pos="31.52" length="8.00" file="traffic.xml" freq="60"/>
 <e2Detector id="e2_joinedS_13001716731_13001716732_1839066883_173082203#1_0" lane="173082203#1_0" pos="0.00" length="8.00" file="traffic.xml" freq="60"/>
 <e2Detector id="e2_joinedS_1846229831_5301028828_-173082297_0" lane="-173082297_0" pos="137.33" length="8.00" file="traffic.xml" freq="60"/>
 <e2Detector id="e2_joinedS_1846229831_5301028828_159603603#3_0" lane="159603603#3_0" pos="0.00" length="8.00" file="traffic.xml" freq="60"/>
 <e2Detector id="e2_joinedS_1846229831_5301028828_159603603#2_0" lane="159603603#2_0" pos="40.61" length="8.00" file="traffic.xml" freq="60"/>
 <e2Detector id="e2_6335769014_176716242#2_0" lane="176716242#2_0" pos="4.67" length="8.00" file="traffic.xml" freq="60"/>
 <e2Detector id="e2_6335769014_-176716242#3_0" lane="-176716242#3_0" pos="19.94" length="8.00" file="traffic.xml" freq="60"/>
 <e2Detector id="e2_6335734527_176716257#0_0" lane="176716257#0_0" pos="196.02" length="8.00" file="traffic.xml" freq="60"/>
 <e2Detector id="e2_6335734527_-176716257#1_0" lane="-176716257#1_0" pos="224.65" length="8.00" file="traffic.xml" freq="60"/>
 <e2Detector id="e2_1838952716_185536389#7_0" lane="185536389#7_0" pos="13.61" length="8.00" file="traffic.xml" freq="60"/>
 <e2Detector id="e2_1838952716_-185536389#8_0" lane="-185536389#8_0" pos="16.75" length="8.00" file="traffic.xml" freq="60"/>
 <e2Detector id="e2_1838952716_-99907268#0_0" lane="-99907268#0_0" pos="25.76" length="8.00" file="traffic.xml" freq="60"/>
 <e2Detector id="e2_joinedS_1732485867_1732485874_1227797973#2_1" lane="1227797973#2_1" pos="0.00" length="8.00" file="traffic.xml" freq="60"/>
 <e2Detector id="e2_joinedS_1732485867_1732485874_-251663256#0_0" lane="-251663256#0_0" pos="0.00" length="8.00" file="traffic.xml" freq="60"/>
 <e2Detector id="e2_joinedS_1732485867_1732485874_250617782#4_0" lane="250617782#4_0" pos="47.69" length="8.00" file="traffic.xml" freq="60"/>
 <e2Detector id="e2_joinedS_1732485867_1732485874_1227797973#1_1" lane="1227797973#1_1" pos="91.49" length="8.00" file="traffic.xml" freq="60"/>
 <e2Detector id="e2_joinedS_1732485867_1732485874_1227797973#2_0" lane="1227797973#2_0" pos="0.00" length="8.00" file="traffic.xml" freq="60"/>
 <e2Detector id="e2_joinedS_1732485867_1732485874_1227797973#1_0" lane="1227797973#1_0" pos="91.49" length="8.00" file="traffic.xml" freq="60"/>
 <e2Detector id="e2_6041866031_-332465801#23_0" lane="-332465801#23_0" pos="0.00" length="8.00" file="traffic.xml" freq="60"/>
 <e2Detector id="e2_6041866031_332465801#22_0" lane="332465801#22_0" pos="52.73" length="8.00" file="traffic.xml" freq="60"/>
 <e2Detector id="e2_1838952631_-444985902#5_0" lane="-444985902#5_0" pos="203.26" length="8.00" file="traffic.xml" freq="60"/>
 <e2Detector id="e2_1838952631_444985902#4_0" lane="444985902#4_0" pos="13.84" length="8.00" file="traffic.xml" freq="60"/>
 <e2Detector id="e2_joinedS_1155107457_1155107577_184233298#1_0" lane="184233298#1_0" pos="148.77" length="8.00" file="traffic.xml" freq="60"/>
 <e2Detector id="e2_joinedS_1155107457_1155107577_159603617#1_2" lane="159603617#1_2" pos="311.71" length="8.00" file="traffic.xml" freq="60"/>
 <e2Detector id="e2_joinedS_1155107457_1155107577_-99907243_0" lane="-99907243_0" pos="0.00" length="8.00" file="traffic.xml" freq="60"/>
 <e2Detector id="e2_joinedS_1155107457_1155107577_99907243_0" lane="99907243_0" pos="0.00" length="8.00" file="traffic.xml" freq="60"/>
 <e2Detector id="e2_joinedS_1155107457_1155107577_159603617#1_0" lane="159603617#1_0" pos="311.71" length="8.00" file="traffic.xml" freq="60"/>
 <e2Detector id="e2_joinedS_1155107457_1155107577_159603617#1_1" lane="159603617#1_1" pos="311.71" length="8.00" file="traffic.xml" freq="60"/>
 <e2Detector id="e2_joinedS_1155107457_1155107577_-445251189#0_0" lane="-445251189#0_0" pos="0.00" length="8.00" file="traffic.xml" freq="60"/>
 <e2Detector id="e2_joinedS_1155107457_1155107577_184233298#1_1" lane="184233298#1_1" pos="148.77" length="8.00" file="traffic.xml" freq="60"/>
 <e2Detector id="e2_11148870740_460204732#1_0" lane="460204732#1_0" pos="28.83" length="8.00" file="traffic.xml" freq="60"/>
 <e2Detector id="e2_11148870740_-460204732#2_0" lane="-460204732#2_0" pos="0.00" length="8.00" file="traffic.xml" freq="60"/>
 <e2Detector id="e2_12291892219_471543041#0_0" lane="471543041#0_0" pos="37.85" length="8.00" file="traffic.xml" freq="60"/>
 <e2Detector id="e2_12291892219_-471543041#1_0" lane="-471543041#1_0" pos="306.81" length="8.00" file="traffic.xml" freq="60"/>
 <e2Detector id="e2_joinedS_1732485835_446318641_6133119257_1227797978_0" lane="1227797978_0" pos="0.00" length="8.00" file="traffic.xml" freq="60"/>
 <e2Detector id="e2_joinedS_1732485835_446318641_6133119257_1227797976_1" lane="1227797976_1" pos="0.00" length="8.00" file="traffic.xml" freq="60"/>
 <e2Detector id="e2_joinedS_1732485835_446318641_6133119257_250783783_0" lane="250783783_0" pos="336.68" length="8.00" file="traffic.xml" freq="60"/>
 <e2Detector id="e2_joinedS_1732485835_446318641_6133119257_-477791399_0" lane="-477791399_0" pos="0.00" length="8.00" file="traffic.xml" freq="60"/>
 <e2Detector id="e2_joinedS_1732485835_446318641_6133119257_477791399_0" lane="477791399_0" pos="0.00" length="8.00" file="traffic.xml" freq="60"/>
 <e2Detector id="e2_joinedS_1732485835_446318641_6133119257_1227797978_1" lane="1227797978_1" pos="0.00" length="8.00" file="traffic.xml" freq="60"/>
 <e2Detector id="e2_joinedS_1732485835_446318641_6133119257_654531116#0_0" lane="654531116#0_0" pos="0.00" length="8.00" file="traffic.xml" freq="60"/>
 <e2Detector id="e2_joinedS_1732485835_446318641_6133119257_1227797976_0" lane="1227797976_0" pos="0.00" length="8.00" file="traffic.xml" freq="60"/>
 <e2Detector id="e2_5076412028_1032064076#1_1" lane="1032064076#1_1" pos="408.58" length="8.00" file="traffic.xml" freq="60"/>
 <e2Detector id="e2_5076412028_1032064076#1_0" lane="1032064076#1_0" pos="408.58" length="8.00" file="traffic.xml" freq="60"/>
 <e2Detector id="e2_joinedS_6758072698_959685054_444987070#3_1" lane="444987070#3_1" pos="14.71" length="8.00" file="traffic.xml" freq="60"/>
 <e2Detector id="e2_joinedS_6758072698_959685054_173070129#1_0" lane="173070129#1_0" pos="0.00" length="8.00" file="traffic.xml" freq="60"/>
 <e2Detector id="e2_joinedS_6758072698_959685054_1032064077#0_1" lane="1032064077#0_1" pos="58.93" length="8.00" file="traffic.xml" freq="60"/>
 <e2Detector id="e2_joinedS_6758072698_959685054_444987070#3_0" lane="444987070#3_0" pos="14.71" length="8.00" file="traffic.xml" freq="60"/>
 <e2Detector id="e2_joinedS_6758072698_959685054_1032064077#0_0" lane="1032064077#0_0" pos="58.93" length="8.00" file="traffic.xml" freq="60"/>
 <e2Detector id="e2_joinedS_6758072698_959685054_173070129#0_0" lane="173070129#0_0" pos="284.07" length="8.00" file="traffic.xml" freq="60"/>
 <e2Detector id="e2_5076412049_1032064077#1_0" lane="1032064077#1_0" pos="67.27" length="8.00" file="traffic.xml" freq="60"/>
 <e2Detector id="e2_5076412049_1032064077#1_1" lane="1032064077#1_1" pos="67.27" length="8.00" file="traffic.xml" freq="60"/>
 <e2Detector id="e2_11000929498_1184373032#2_0" lane="1184373032#2_0" pos="204.13" length="8.00" file="traffic.xml" freq="60"/>
 <e2Detector id="e2_joinedS_1838952204_8750827855_164107683#1_0" lane="164107683#1_0" pos="0.00" length="8.00" file="traffic.xml" freq="60"/>
 <e2Detector id="e2_joinedS_1838952204_8750827855_164107683#0_0" lane="164107683#0_0" pos="38.59" length="8.00" file="traffic.xml" freq="60"/>
 <e2Detector id="e2_joinedS_1838952204_8750827855_1214281466#1_0" lane="1214281466#1_0" pos="31.32" length="8.00" file="traffic.xml" freq="60"/>
 <e2Detector id="e2_joinedS_1838952204_8750827855_444987070#5_1" lane="444987070#5_1" pos="43.95" length="8.00" file="traffic.xml" freq="60"/>
 <e2Detector id="e2_joinedS_1838952204_8750827855_444987070#5_0" lane="444987070#5_0" pos="43.95" length="8.00" file="traffic.xml" freq="60"/>
 <e2Detector id="e2_5994060700_1222101433#2_0" lane="1222101433#2_0" pos="47.49" length="8.00" file="traffic.xml" freq="60"/>
 <e2Detector id="e2_5994060700_1222101433#2_1" lane="1222101433#2_1" pos="47.49" length="8.00" file="traffic.xml" freq="60"/>
 <e2Detector id="e2_joinedS_1732485859_446317137_250522920_0" lane="250522920_0" pos="7.13" length="8.00" file="traffic.xml" freq="60"/>
 <e2Detector id="e2_joinedS_1732485859_446317137_1222101433#7_1" lane="1222101433#7_1" pos="46.20" length="8.00" file="traffic.xml" freq="60"/>
 <e2Detector id="e2_joinedS_1732485859_446317137_1222101433#8_0" lane="1222101433#8_0" pos="0.00" length="8.00" file="traffic.xml" freq="60"/>
 <e2Detector id="e2_joinedS_1732485859_446317137_1222101433#8_1" lane="1222101433#8_1" pos="0.00" length="8.00" file="traffic.xml" freq="60"/>
 <e2Detector id="e2_joinedS_1732485859_446317137_1222101433#7_0" lane="1222101433#7_0" pos="46.20" length="8.00" file="traffic.xml" freq="60"/>
 <e2Detector id="e2_1732485855_1227797973#0_1" lane="1227797973#0_1" pos="481.68" length="8.00" file="traffic.xml" freq="60"/>
 <e2Detector id="e2_1732485855_1227797973#0_0" lane="1227797973#0_0" pos="481.68" length="8.00" file="traffic.xml" freq="60"/>
 <e2Detector id="e2_959685075_1227811018#0_1" lane="1227811018#0_1" pos="567.29" length="8.00" file="traffic.xml" freq="60"/>
 <e2Detector id="e2_959685075_1227811018#0_0" lane="1227811018#0_0" pos="567.29" length="8.00" file="traffic.xml" freq="60"/>
 <e2Detector id="e2_959685075_1227811018#0_2" lane="1227811018#0_2" pos="567.29" length="8.00" file="traffic.xml" freq="60"/>
 <e2Detector id="e2_959685061_1227811018#1_2" lane="1227811018#1_2" pos="25.23" length="8.00" file="traffic.xml" freq="60"/>
 <e2Detector id="e2_959685061_1227811018#1_0" lane="1227811018#1_0" pos="25.23" length="8.00" file="traffic.xml" freq="60"/>
 <e2Detector id="e2_959685061_1227811018#1_1" lane="1227811018#1_1" pos="25.23" length="8.00" file="traffic.xml" freq="60"/>
 <e2Detector id="e2_joinedS_959685103_959685127_1227811019_0" lane="1227811019_0" pos="178.21" length="8.00" file="traffic.xml" freq="60"/>
 <e2Detector id="e2_joinedS_959685103_959685127_173070253#1_0" lane="173070253#1_0" pos="0.00" length="8.00" file="traffic.xml" freq="60"/>
 <e2Detector id="e2_joinedS_959685103_959685127_445221161#2_0" lane="445221161#2_0" pos="138.63" length="8.00" file="traffic.xml" freq="60"/>
 <e2Detector id="e2_joinedS_959685103_959685127_173070253#1_1" lane="173070253#1_1" pos="0.00" length="8.00" file="traffic.xml" freq="60"/>
 <e2Detector id="e2_joinedS_959685103_959685127_1227811019_1" lane="1227811019_1" pos="178.21" length="8.00" file="traffic.xml" freq="60"/>
 <e2Detector id="e2_joinedS_959685103_959685127_173070253#0_1" lane="173070253#0_1" pos="0.00" length="8.00" file="traffic.xml" freq="60"/>
 <e2Detector id="e2_joinedS_959685103_959685127_173070253#0_0" lane="173070253#0_0" pos="0.00" length="8.00" file="traffic.xml" freq="60"/>
 <e2Detector id="e2_joinedS_184048165_2631397214_429985956_1" lane="429985956_1" pos="60.32" length="8.00" file="traffic.xml" freq="60"/>
 <e2Detector id="e2_joinedS_184048165_2631397214_429985956_0" lane="429985956_0" pos="60.32" length="8.00" file="traffic.xml" freq="60"/>
 <e2Detector id="e2_joinedS_184048165_2631397214_1303959760_1" lane="1303959760_1" pos="0.00" length="8.00" file="traffic.xml" freq="60"/>
 <e2Detector id="e2_joinedS_184048165_2631397214_429985960_0" lane="429985960_0" pos="0.00" length="8.00" file="traffic.xml" freq="60"/>
 <e2Detector id="e2_joinedS_184048165_2631397214_1303959760_0" lane="1303959760_0" pos="0.00" length="8.00" file="traffic.xml" freq="60"/>
 <e2Detector id="e2_joinedS_148575328_184049229_478352930#3_0" lane="478352930#3_0" pos="231.72" length="8.00" file="traffic.xml" freq="60"/>
 <e2Detector id="e2_joinedS_148575328_184049229_1337832768_0" lane="1337832768_0" pos="554.40" length="8.00" file="traffic.xml" freq="60"/>
 <e2Detector id="e2_joinedS_148575328_184049229_1337832769#1_0" lane="1337832769#1_0" pos="95.42" length="8.00" file="traffic.xml" freq="60"/>
 <e2Detector id="e2_joinedS_148575328_184049229_136457548#0_0" lane="136457548#0_0" pos="0.00" length="8.00" file="traffic.xml" freq="60"/>
 <e2Detector id="e2_joinedS_11215456434_133514243_446304418_6929701996_#2more_740125991_0" lane="740125991_0" pos="0.00" length="8.00" file="traffic.xml" freq="60"/>
 <e2Detector id="e2_joinedS_11215456434_133514243_446304418_6929701996_#2more_38000947_0" lane="38000947_0" pos="242.92" length="8.00" file="traffic.xml" freq="60"/>
 <e2Detector id="e2_joinedS_11215456434_133514243_446304418_6929701996_#2more_443214672#2_0" lane="443214672#2_0" pos="3.36" length="8.00" file="traffic.xml" freq="60"/>
 <e2Detector id="e2_joinedS_11215456434_133514243_446304418_6929701996_#2more_39271386#0_0" lane="39271386#0_0" pos="349.71" length="8.00" file="traffic.xml" freq="60"/>
 <e2Detector id="e2_joinedS_11215456434_133514243_446304418_6929701996_#2more_443214672#0_0" lane="443214672#0_0" pos="63.98" length="8.00" file="traffic.xml" freq="60"/>
 <e2Detector id="e2_joinedS_11215456434_133514243_446304418_6929701996_#2more_39271386#1_0" lane="39271386#1_0" pos="1.99" length="8.00" file="traffic.xml" freq="60"/>
 <e2Detector id="e2_joinedS_11215456434_133514243_446304418_6929701996_#2more_443214672#1_0" lane="443214672#1_0" pos="0.00" length="8.00" file="traffic.xml" freq="60"/>
 <e2Detector id="e2_joinedS_11215456434_133514243_446304418_6929701996_#2more_1338288458_0" lane="1338288458_0" pos="0.00" length="8.00" file="traffic.xml" freq="60"/>
 <e2Detector id="e2_joinedS_11215456434_133514243_446304418_6929701996_#2more_849671395_0" lane="849671395_0" pos="0.00" length="8.00" file="traffic.xml" freq="60"/>
 <e2Detector id="e2_5077983129_134658987#4_1" lane="134658987#4_1" pos="0.00" length="8.00" file="traffic.xml" freq="60"/>
 <e2Detector id="e2_5077983129_164242567#2_0" lane="164242567#2_0" pos="2.05" length="8.00" file="traffic.xml" freq="60"/>
 <e2Detector id="e2_5077983129_134658987#4_0" lane="134658987#4_0" pos="0.00" length="8.00" file="traffic.xml" freq="60"/>
 <e2Detector id="e2_5077983129_164242567#2_1" lane="164242567#2_1" pos="2.05" length="8.00" file="traffic.xml" freq="60"/>
 <e2Detector id="e2_1758896260_134658987#5_1" lane="134658987#5_1" pos="9.50" length="8.00" file="traffic.xml" freq="60"/>
 <e2Detector id="e2_1758896260_134658993#0_1" lane="134658993#0_1" pos="654.41" length="8.00" file="traffic.xml" freq="60"/>
 <e2Detector id="e2_1758896260_134658987#5_0" lane="134658987#5_0" pos="9.50" length="8.00" file="traffic.xml" freq="60"/>
 <e2Detector id="e2_1758896260_134658993#0_0" lane="134658993#0_0" pos="654.41" length="8.00" file="traffic.xml" freq="60"/>
 <e2Detector id="e2_joinedS_5538402200_651116440_51058024#1_3" lane="51058024#1_3" pos="180.92" length="8.00" file="traffic.xml" freq="60"/>
 <e2Detector id="e2_joinedS_5538402200_651116440_134667406#4_1" lane="134667406#4_1" pos="0.00" length="8.00" file="traffic.xml" freq="60"/>
 <e2Detector id="e2_joinedS_5538402200_651116440_51058024#1_2" lane="51058024#1_2" pos="180.92" length="8.00" file="traffic.xml" freq="60"/>
 <e2Detector id="e2_joinedS_5538402200_651116440_136457056_0" lane="136457056_0" pos="36.24" length="8.00" file="traffic.xml" freq="60"/>
 <e2Detector id="e2_joinedS_5538402200_651116440_51058024#1_0" lane="51058024#1_0" pos="180.92" length="8.00" file="traffic.xml" freq="60"/>
 <e2Detector id="e2_joinedS_5538402200_651116440_134667406#4_0" lane="134667406#4_0" pos="0.00" length="8.00" file="traffic.xml" freq="60"/>
 <e2Detector id="e2_joinedS_5538402200_651116440_134667406#4_2" lane="134667406#4_2" pos="0.00" length="8.00" file="traffic.xml" freq="60"/>
 <e2Detector id="e2_joinedS_5538402200_651116440_134667406#4_3" lane="134667406#4_3" pos="0.00" length="8.00" file="traffic.xml" freq="60"/>
 <e2Detector id="e2_joinedS_5538402200_651116440_134667403_0" lane="134667403_0" pos="0.00" length="8.00" file="traffic.xml" freq="60"/>
 <e2Detector id="e2_joinedS_5538402200_651116440_51058024#1_1" lane="51058024#1_1" pos="180.92" length="8.00" file="traffic.xml" freq="60"/>
 <e2Detector id="e2_184057841_17761744#1_0" lane="17761744#1_0" pos="452.78" length="8.00" file="traffic.xml" freq="60"/>
 <e2Detector id="e2_184057841_14051843#4_0" lane="14051843#4_0" pos="0.00" length="8.00" file="traffic.xml" freq="60"/>
 <e2Detector id="e2_10894608836_15059198#0_1" lane="15059198#0_1" pos="136.15" length="8.00" file="traffic.xml" freq="60"/>
 <e2Detector id="e2_10894608836_15059198#0_0" lane="15059198#0_0" pos="136.15" length="8.00" file="traffic.xml" freq="60"/>
 <e2Detector id="e2_joinedS_4715802935_6338439745_15065291#3_0" lane="15065291#3_0" pos="0.00" length="8.00" file="traffic.xml" freq="60"/>
 <e2Detector id="e2_joinedS_4715802935_6338439745_478352929_0" lane="478352929_0" pos="0.00" length="8.00" file="traffic.xml" freq="60"/>
 <e2Detector id="e2_joinedS_4715802935_6338439745_408388642_0" lane="408388642_0" pos="82.58" length="8.00" file="traffic.xml" freq="60"/>
 <e2Detector id="e2_6042753185_151171698#0_2" lane="151171698#0_2" pos="296.82" length="8.00" file="traffic.xml" freq="60"/>
 <e2Detector id="e2_6042753185_151171698#0_0" lane="151171698#0_0" pos="296.82" length="8.00" file="traffic.xml" freq="60"/>
 <e2Detector id="e2_6042753185_151171698#0_1" lane="151171698#0_1" pos="296.82" length="8.00" file="traffic.xml" freq="60"/>
 <e2Detector id="e2_1717098953_159603636_2" lane="159603636_2" pos="23.62" length="8.00" file="traffic.xml" freq="60"/>
 <e2Detector id="e2_1717098953_159603636_3" lane="159603636_3" pos="23.62" length="8.00" file="traffic.xml" freq="60"/>
 <e2Detector id="e2_1717098953_445251190#7_1" lane="445251190#7_1" pos="42.54" length="8.00" file="traffic.xml" freq="60"/>
 <e2Detector id="e2_1717098953_445251190#7_0" lane="445251190#7_0" pos="42.54" length="8.00" file="traffic.xml" freq="60"/>
 <e2Detector id="e2_1717098953_159603636_0" lane="159603636_0" pos="23.62" length="8.00" file="traffic.xml" freq="60"/>
 <e2Detector id="e2_1717098953_445251190#7_2" lane="445251190#7_2" pos="42.54" length="8.00" file="traffic.xml" freq="60"/>
 <e2Detector id="e2_1717098953_159603636_1" lane="159603636_1" pos="23.62" length="8.00" file="traffic.xml" freq="60"/>
 <e2Detector id="e2_1717098972_159603638#1_1" lane="159603638#1_1" pos="13.27" length="8.00" file="traffic.xml" freq="60"/>
 <e2Detector id="e2_1717098972_159603638#1_2" lane="159603638#1_2" pos="13.27" length="8.00" file="traffic.xml" freq="60"/>
 <e2Detector id="e2_1717098972_159603638#1_3" lane="159603638#1_3" pos="13.27" length="8.00" file="traffic.xml" freq="60"/>
 <e2Detector id="e2_1717098972_159603638#1_0" lane="159603638#1_0" pos="13.27" length="8.00" file="traffic.xml" freq="60"/>
 <e2Detector id="e2_1717098972_24654408#0_3" lane="24654408#0_3" pos="44.88" length="8.00" file="traffic.xml" freq="60"/>
 <e2Detector id="e2_1717098972_24654408#0_1" lane="24654408#0_1" pos="44.88" length="8.00" file="traffic.xml" freq="60"/>
 <e2Detector id="e2_1717098972_24654408#0_2" lane="24654408#0_2" pos="44.88" length="8.00" file="traffic.xml" freq="60"/>
 <e2Detector id="e2_1717098972_24654408#0_0" lane="24654408#0_0" pos="44.88" length="8.00" file="traffic.xml" freq="60"/>
 <e2Detector id="e2_1838952201_444987070#4_0" lane="444987070#4_0" pos="59.58" length="8.00" file="traffic.xml" freq="60"/>
 <e2Detector id="e2_1838952201_173070125_1" lane="173070125_1" pos="249.07" length="8.00" file="traffic.xml" freq="60"/>
 <e2Detector id="e2_1838952201_173070125_0" lane="173070125_0" pos="249.07" length="8.00" file="traffic.xml" freq="60"/>
 <e2Detector id="e2_1838952201_444987070#4_1" lane="444987070#4_1" pos="59.58" length="8.00" file="traffic.xml" freq="60"/>
 <e2Detector id="e2_4427110525_173070208_0" lane="173070208_0" pos="74.51" length="8.00" file="traffic.xml" freq="60"/>
 <e2Detector id="e2_4427110525_173070208_1" lane="173070208_1" pos="74.51" length="8.00" file="traffic.xml" freq="60"/>
 <e2Detector id="e2_4427110525_474426349_0" lane="474426349_0" pos="54.77" length="8.00" file="traffic.xml" freq="60"/>
 <e2Detector id="e2_1156818659_173070226#1_0" lane="173070226#1_0" pos="15.45" length="8.00" file="traffic.xml" freq="60"/>
 <e2Detector id="e2_1156818659_173070226#1_1" lane="173070226#1_1" pos="15.45" length="8.00" file="traffic.xml" freq="60"/>
 <e2Detector id="e2_2626998166_176698769#3_0" lane="176698769#3_0" pos="102.47" length="8.00" file="traffic.xml" freq="60"/>
 <e2Detector id="e2_2626998166_176698769#3_1" lane="176698769#3_1" pos="102.47" length="8.00" file="traffic.xml" freq="60"/>
 <e2Detector id="e2_joinedS_184049290_445662727_37948707_0" lane="37948707_0" pos="705.95" length="8.00" file="traffic.xml" freq="60"/>
 <e2Detector id="e2_joinedS_184049290_445662727_478357775#5_0" lane="478357775#5_0" pos="0.00" length="8.00" file="traffic.xml" freq="60"/>
 <e2Detector id="e2_joinedS_184049290_445662727_17760770#0_0" lane="17760770#0_0" pos="0.00" length="8.00" file="traffic.xml" freq="60"/>
 <e2Detector id="e2_184052443_17761223#6_0" lane="17761223#6_0" pos="0.00" length="8.00" file="traffic.xml" freq="60"/>
 <e2Detector id="e2_184052443_17761223#6_1" lane="17761223#6_1" pos="0.00" length="8.00" file="traffic.xml" freq="60"/>
 <e2Detector id="e2_8668899178_191005959#0_1" lane="191005959#0_1" pos="0.00" length="8.00" file="traffic.xml" freq="60"/>
 <e2Detector id="e2_8668899178_191005959#0_0" lane="191005959#0_0" pos="0.00" length="8.00" file="traffic.xml" freq="60"/>
 <e2Detector id="e2_8668899178_191005959#0_2" lane="191005959#0_2" pos="0.00" length="8.00" file="traffic.xml" freq="60"/>
 <e2Detector id="e2_133539380_211198655#3_0" lane="211198655#3_0" pos="9.24" length="8.00" file="traffic.xml" freq="60"/>
 <e2Detector id="e2_133539380_211198655#3_1" lane="211198655#3_1" pos="9.24" length="8.00" file="traffic.xml" freq="60"/>
 <e2Detector id="e2_133539380_211198655#3_2" lane="211198655#3_2" pos="9.24" length="8.00" file="traffic.xml" freq="60"/>
 <e2Detector id="e2_2212089477_211199030#2_0" lane="211199030#2_0" pos="7.99" length="8.00" file="traffic.xml" freq="60"/>
 <e2Detector id="e2_12067068665_250617782#1_0" lane="250617782#1_0" pos="155.99" length="8.00" file="traffic.xml" freq="60"/>
 <e2Detector id="e2_12067068665_250617792_0" lane="250617792_0" pos="40.92" length="8.00" file="traffic.xml" freq="60"/>
 <e2Detector id="e2_446308548_251803273_0" lane="251803273_0" pos="25.07" length="8.00" file="traffic.xml" freq="60"/>
 <e2Detector id="e2_446308548_251803273_1" lane="251803273_1" pos="25.07" length="8.00" file="traffic.xml" freq="60"/>
 <e2Detector id="e2_2627129339_256168390#1_0" lane="256168390#1_0" pos="52.84" length="8.00" file="traffic.xml" freq="60"/>
 <e2Detector id="e2_2628338479_257237497#1_0" lane="257237497#1_0" pos="32.70" length="8.00" file="traffic.xml" freq="60"/>
 <e2Detector id="e2_2628338479_583396842#1_1" lane="583396842#1_1" pos="83.77" length="8.00" file="traffic.xml" freq="60"/>
 <e2Detector id="e2_2628338479_583396842#1_0" lane="583396842#1_0" pos="83.77" length="8.00" file="traffic.xml" freq="60"/>
 <e2Detector id="e2_joinedS_4425588097_8099563457_445107677#0_0" lane="445107677#0_0" pos="13.04" length="8.00" file="traffic.xml" freq="60"/>
 <e2Detector id="e2_joinedS_4425588097_8099563457_355829978#4_1" lane="355829978#4_1" pos="0.00" length="8.00" file="traffic.xml" freq="60"/>
 <e2Detector id="e2_joinedS_4425588097_8099563457_445107677#1_0" lane="445107677#1_0" pos="0.00" length="8.00" file="traffic.xml" freq="60"/>
 <e2Detector id="e2_joinedS_4425588097_8099563457_478509062#0_0" lane="478509062#0_0" pos="409.06" length="8.00" file="traffic.xml" freq="60"/>
 <e2Detector id="e2_joinedS_4425588097_8099563457_355829978#4_0" lane="355829978#4_0" pos="0.00" length="8.00" file="traffic.xml" freq="60"/>
 <e2Detector id="e2_joinedS_4425588097_8099563457_478509062#0_1" lane="478509062#0_1" pos="409.06" length="8.00" file="traffic.xml" freq="60"/>
 <e2Detector id="e2_joinedS_4425588097_8099563457_355829978#4_2" lane="355829978#4_2" pos="0.00" length="8.00" file="traffic.xml" freq="60"/>
 <e2Detector id="e2_2367383858_355829978#7_1" lane="355829978#7_1" pos="287.23" length="8.00" file="traffic.xml" freq="60"/>
 <e2Detector id="e2_2367383858_355829978#7_2" lane="355829978#7_2" pos="287.23" length="8.00" file="traffic.xml" freq="60"/>
 <e2Detector id="e2_2367383858_355829978#7_0" lane="355829978#7_0" pos="287.23" length="8.00" file="traffic.xml" freq="60"/>
 <e2Detector id="e2_148579251_38000355_0" lane="38000355_0" pos="11.08" length="8.00" file="traffic.xml" freq="60"/>
 <e2Detector id="e2_148579251_429979390#3_0" lane="429979390#3_0" pos="170.28" length="8.00" file="traffic.xml" freq="60"/>
 <e2Detector id="e2_5538995525_38002151#1_0" lane="38002151#1_0" pos="22.89" length="8.00" file="traffic.xml" freq="60"/>
 <e2Detector id="e2_6817945998_38002451#0_0" lane="38002451#0_0" pos="69.73" length="8.00" file="traffic.xml" freq="60"/>
 <e2Detector id="e2_6817945998_38002451#0_1" lane="38002451#0_1" pos="69.73" length="8.00" file="traffic.xml" freq="60"/>
 <e2Detector id="e2_joinedS_4292016976_4292016979_4427155300_765184593_#1more_405506407#2_0" lane="405506407#2_0" pos="182.70" length="8.00" file="traffic.xml" freq="60"/>
 <e2Detector id="e2_joinedS_4292016976_4292016979_4427155300_765184593_#1more_429979390#0_0" lane="429979390#0_0" pos="0.00" length="8.00" file="traffic.xml" freq="60"/>
 <e2Detector id="e2_joinedS_4292016976_4292016979_4427155300_765184593_#1more_405506407#3_0" lane="405506407#3_0" pos="0.00" length="8.00" file="traffic.xml" freq="60"/>
 <e2Detector id="e2_joinedS_4292016976_4292016979_4427155300_765184593_#1more_405506407#4_0" lane="405506407#4_0" pos="0.00" length="8.00" file="traffic.xml" freq="60"/>
 <e2Detector id="e2_joinedS_4292016976_4292016979_4427155300_765184593_#1more_61209884_0" lane="61209884_0" pos="0.46" length="8.00" file="traffic.xml" freq="60"/>
 <e2Detector id="e2_joinedS_4292016976_4292016979_4427155300_765184593_#1more_429979390#1_0" lane="429979390#1_0" pos="0.00" length="8.00" file="traffic.xml" freq="60"/>
 <e2Detector id="e2_joinedS_148578587_148578688_429979393#2_0" lane="429979393#2_0" pos="174.82" length="8.00" file="traffic.xml" freq="60"/>
 <e2Detector id="e2_joinedS_148578587_148578688_429979393#2_1" lane="429979393#2_1" pos="174.82" length="8.00" file="traffic.xml" freq="60"/>
 <e2Detector id="e2_joinedS_148578587_148578688_429987010_0" lane="429987010_0" pos="89.89" length="8.00" file="traffic.xml" freq="60"/>
 <e2Detector id="e2_joinedS_148578587_148578688_429987010_1" lane="429987010_1" pos="89.89" length="8.00" file="traffic.xml" freq="60"/>
 <e2Detector id="e2_joinedS_148578587_148578688_429979391_0" lane="429979391_0" pos="0.00" length="8.00" file="traffic.xml" freq="60"/>
 <e2Detector id="e2_joinedS_148578587_148578688_429984670_0" lane="429984670_0" pos="6.96" length="8.00" file="traffic.xml" freq="60"/>
 <e2Detector id="e2_148575335_429979392_0" lane="429979392_0" pos="5.15" length="8.00" file="traffic.xml" freq="60"/>