<additional>
 <e2Detector id="e2_1839304912_1041218832#0_0" lane="1041218832#0_0" pos="383.25" length="8.00" file="traffic.xml" freq="60"/>
 <e2Detector id="e2_1839304912_-1041218832#1_0" lane="-1041218832#1_0" pos="160.95" length="8.00" file="traffic.xml" freq="60"/>
 <e2Detector id="e2_1924476099_134667407#0_0" lane="134667407#0_0" pos="43.21" length="8.00" file="traffic.xml" freq="60"/>
 <e2Detector id="e2_1924476099_-134667407#1_0" lane="-134667407#1_0" pos="6.59" length="8.00" file="traffic.xml" freq="60"/>
 <e2Detector id="e2_1721202320_134667407#1_0" lane="134667407#1_0" pos="6.59" length="8.00" file="traffic.xml" freq="60"/>
 <e2Detector id="e2_1721202320_-134667407#2_0" lane="-134667407#2_0" pos="223.26" length="8.00" file="traffic.xml" freq="60"/>
 <e2Detector id="e2_7288564121_1426337579#0_0" lane="1426337579#0_0" pos="11.30" length="8.00" file="traffic.xml" freq="60"/>
 <e2Detector id="e2_7288564121_-1426337579#1_0" lane="-1426337579#1_0" pos="95.82" length="8.00" file="traffic.xml" freq="60"/>
 <e2Detector id="e2_joinedS_1839010296_5074759684_173075556#1_0" lane="173075556#1_0" pos="25.69" length="8.00" file="traffic.xml" freq="60"/>
 <e2Detector id="e2_joinedS_1839010296_5074759684_-173075651#3_0" lane="-173075651#3_0" pos="30.35" length="8.00" file="traffic.xml" freq="60"/>
 <e2Detector id="e2_joinedS_1839010296_5074759684_-173075651#2_0" lane="-173075651#2_0" pos="0.00" length="8.00" file="traffic.xml" freq="60"/>
 <e2Detector id="e2_joinedS_1839010296_5074759684_520717406#1_0" lane="520717406#1_0" pos="129.92" length="8.00" file="traffic.xml" freq="60"/>
 <e2Detector id="e2_joinedS_1839010296_5074759684_173075651#2_0" lane="173075651#2_0" pos="0.00" length="8.00" file="traffic.xml" freq="60"/>
 <e2Detector id="e2_joinedS_1839010296_5074759684_173075651#1_0" lane="173075651#1_0" pos="677.82" length="8.00" file="traffic.xml" freq="60"/>
 <e2Detector id="e2_1839010173_332465801#5_0" lane="332465801#5_0" pos="380.60" length="8.00" file="traffic.xml" freq="60"/>
 <e2Detector id="e2_1839010173_-173075786_0" lane="-173075786_0" pos="227.79" length="8.00" file="traffic.xml" freq="60"/>
 <e2Detector id="e2_1839010173_-332465801#6_0" lane="-332465801#6_0" pos="34.52" length="8.00" file="traffic.xml" freq="60"/>
 <e2Detector id="e2_1693835412_226640219#0_0" lane="226640219#0_0" pos="357.69" length="8.00" file="traffic.xml" freq="60"/>
 <e2Detector id="e2_1693835412_-226640219#1_0" lane="-226640219#1_0" pos="411.55" length="8.00" file="traffic.xml" freq="60"/>
 <e2Detector id="e2_2052023821_-226640219#2_0" lane="-226640219#2_0" pos="155.92" length="8.00" file="traffic.xml" freq="60"/>
 <e2Detector id="e2_2052023821_226640219#1_0" lane="226640219#1_0" pos="414.10" length="8.00" file="traffic.xml" freq="60"/>
 <e2Detector id="e2_2052023821_387316712_0" lane="387316712_0" pos="0.00" length="8.00" file="traffic.xml" freq="60"/>
 <e2Detector id="e2_1717796786_-315961605#0_0" lane="-315961605#0_0" pos="0.00" length="8.00" file="traffic.xml" freq="60"/>
 <e2Detector id="e2_1717796786_934394402_0" lane="934394402_0" pos="2.64" length="8.00" file="traffic.xml" freq="60"/>
 <e2Detector id="e2_1717796786_934441505_0" lane="934441505_0" pos="0.00" length="8.00" file="traffic.xml" freq="60"/>
 <e2Detector id="e2_1839304759_-332465801#1_0" lane="-332465801#1_0" pos="237.74" length="8.00" file="traffic.xml" freq="60"/>
 <e2Detector id="e2_1839304759_332465801#0_0" lane="332465801#0_0" pos="281.90" length="8.00" file="traffic.xml" freq="60"/>
 <e2Detector id="e2_1839840131_332465801#2_0" lane="332465801#2_0" pos="36.21" length="8.00" file="traffic.xml" freq="60"/>
 <e2Detector id="e2_1839840131_-332465801#3_0" lane="-332465801#3_0" pos="289.44" length="8.00" file="traffic.xml" freq="60"/>
 <e2Detector id="e2_1839010129_332465801#6_0" lane="332465801#6_0" pos="34.69" length="8.00" file="traffic.xml" freq="60"/>
 <e2Detector id="e2_1839010129_-332465801#7_0" lane="-332465801#7_0" pos="637.54" length="8.00" file="traffic.xml" freq="60"/>
 <e2Detector id="e2_1721202142_387316728#0_0" lane="387316728#0_0" pos="203.81" length="8.00" file="traffic.xml" freq="60"/>
 <e2Detector id="e2_1721202142_-387316728#1_0" lane="-387316728#1_0" pos="300.28" length="8.00" file="traffic.xml" freq="60"/>
 <e2Detector id="e2_1722427892_537562693#0_0" lane="537562693#0_0" pos="949.24" length="8.00" file="traffic.xml" freq="60"/>
 <e2Detector id="e2_1722427892_-537562693#1_0" lane="-537562693#1_0" pos="22.72" length="8.00" file="traffic.xml" freq="60"/>
 <e2Detector id="e2_1722427872_-537562693#2_0" lane="-537562693#2_0" pos="15.89" length="8.00" file="traffic.xml" freq="60"/>
 <e2Detector id="e2_1722427872_537562693#1_0" lane="537562693#1_0" pos="22.72" length="8.00" file="traffic.xml" freq="60"/>
 <e2Detector id="e2_1722427860_537562693#2_0" lane="537562693#2_0" pos="15.37" length="8.00" file="traffic.xml" freq="60"/>
 <e2Detector id="e2_1722427860_-537562693#3_0" lane="-537562693#3_0" pos="852.41" length="8.00" file="traffic.xml" freq="60"/>
 <e2Detector id="e2_1839900440_173163404_0" lane="173163404_0" pos="243.08" length="8.00" file="traffic.xml" freq="60"/>
 <e2Detector id="e2_1839900440_-538799781_0" lane="-538799781_0" pos="128.31" length="8.00" file="traffic.xml" freq="60"/>
 <e2Detector id="e2_1839900440_173163551_0" lane="173163551_0" pos="238.36" length="8.00" file="traffic.xml" freq="60"/>
 <e2Detector id="e2_1480291573_-601848588_0" lane="-601848588_0" pos="325.90" length="8.00" file="traffic.xml" freq="60"/>
 <e2Detector id="e2_1480291573_1185176014_0" lane="1185176014_0" pos="9.50" length="8.00" file="traffic.xml" freq="60"/>
 <e2Detector id="e2_1839840241_652483193#0_0" lane="652483193#0_0" pos="579.48" length="8.00" file="traffic.xml" freq="60"/>
 <e2Detector id="e2_1839840241_-652483193#1_0" lane="-652483193#1_0" pos="8.60" length="8.00" file="traffic.xml" freq="60"/>
 <e2Detector id="e2_1704976174_410045890_0" lane="410045890_0" pos="401.04" length="8.00" file="traffic.xml" freq="60"/>
 <e2Detector id="e2_1704976174_410045890_1" lane="410045890_1" pos="401.04" length="8.00" file="traffic.xml" freq="60"/>
 <e2Detector id="e2_1704976174_654290512_0" lane="654290512_0" pos="465.44" length="8.00" file="traffic.xml" freq="60"/>
 <e2Detector id="e2_1704976174_-656303108_0" lane="-656303108_0" pos="162.91" length="8.00" file="traffic.xml" freq="60"/>
 <e2Detector id="e2_1604251408_-719473885#1_0" lane="-719473885#1_0" pos="119.28" length="8.00" file="traffic.xml" freq="60"/>
 <e2Detector id="e2_1604251408_719473885#0_0" lane="719473885#0_0" pos="35.44" length="8.00" file="traffic.xml" freq="60"/>
 <e2Detector id="e2_1722427702_924626944_0" lane="924626944_0" pos="431.38" length="8.00" file="traffic.xml" freq="60"/>
 <e2Detector id="e2_1722427702_537562693#3_0" lane="537562693#3_0" pos="850.20" length="8.00" file="traffic.xml" freq="60"/>
 <e2Detector id="e2_1722427702_-924761512_0" lane="-924761512_0" pos="350.38" length="8.00" file="traffic.xml" freq="60"/>
 <e2Detector id="e2_5718759997_932630551#0_0" lane="932630551#0_0" pos="385.32" length="8.00" file="traffic.xml" freq="60"/>
 <e2Detector id="e2_5718759997_-932630551#1_0" lane="-932630551#1_0" pos="0.00" length="8.00" file="traffic.xml" freq="60"/>
 <e2Detector id="e2_1723418295_-932630551#2_0" lane="-932630551#2_0" pos="22.60" length="8.00" file="traffic.xml" freq="60"/>
 <e2Detector id="e2_1723418295_932630551#1_0" lane="932630551#1_0" pos="0.00" length="8.00" file="traffic.xml" freq="60"/>
 <e2Detector id="e2_6129566938_-932651118#0_0" lane="-932651118#0_0" pos="0.00" length="8.00" file="traffic.xml" freq="60"/>
 <e2Detector id="e2_6129566938_932651468_0" lane="932651468_0" pos="0.80" length="8.00" file="traffic.xml" freq="60"/>
 <e2Detector id="e2_1721202753_-932651118#1_0" lane="-932651118#1_0" pos="63.10" length="8.00" file="traffic.xml" freq="60"/>
 <e2Detector id="e2_1721202753_932651118#0_1" lane="932651118#0_1" pos="0.00" length="8.00" file="traffic.xml" freq="60"/>
 <e2Detector id="e2_1721202753_932651118#0_0" lane="932651118#0_0" pos="0.00" length="8.00" file="traffic.xml" freq="60"/>
 <e2Detector id="e2_1480291669_182105794_0" lane="182105794_0" pos="9.81" length="8.00" file="traffic.xml" freq="60"/>
 <e2Detector id="e2_1480291669_-932651119_0" lane="-932651119_0" pos="510.40" length="8.00" file="traffic.xml" freq="60"/>
 <e2Detector id="e2_1480291669_934299217_0" lane="934299217_0" pos="77.87" length="8.00" file="traffic.xml" freq="60"/>
 <e2Detector id="e2_6129542838_932651119_0" lane="932651119_0" pos="509.97" length="8.00" file="traffic.xml" freq="60"/>
 <e2Detector id="e2_6129542838_-932651468_0" lane="-932651468_0" pos="0.82" length="8.00" file="traffic.xml" freq="60"/>
 <e2Detector id="e2_1839901652_-971029276#1_0" lane="-971029276#1_0" pos="44.72" length="8.00" file="traffic.xml" freq="60"/>
 <e2Detector id="e2_1839901652_971029276#0_0" lane="971029276#0_0" pos="489.98" length="8.00" file="traffic.xml" freq="60"/>
 <e2Detector id="e2_10816372131_1163037322#0_0" lane="1163037322#0_0" pos="0.00" length="8.00" file="traffic.xml" freq="60"/>
 <e2Detector id="e2_10816372129_1163037324#0_0" lane="1163037324#0_0" pos="11.07" length="8.00" file="traffic.xml" freq="60"/>
 <e2Detector id="e2_1693808969_387316797#0_0" lane="387316797#0_0" pos="101.31" length="8.00" file="traffic.xml" freq="60"/>
 <e2Detector id="e2_1693808969_1426337577_0" lane="1426337577_0" pos="6.34" length="8.00" file="traffic.xml" freq="60"/>
 <e2Detector id="e2_1693808969_387316797#0_1" lane="387316797#0_1" pos="101.31" length="8.00" file="traffic.xml" freq="60"/>
 <e2Detector id="e2_1656768015_152906305_0" lane="152906305_0" pos="406.56" length="8.00" file="traffic.xml" freq="60"/>
 <e2Detector id="e2_1656768015_152906305_1" lane="152906305_1" pos="406.56" length="8.00" file="traffic.xml" freq="60"/>
 <e2Detector id="e2_1693835456_387316789#0_0" lane="387316789#0_0" pos="59.04" length="8.00" file="traffic.xml" freq="60"/>
 <e2Detector id="e2_1693835456_159603639_0" lane="159603639_0" pos="22.74" length="8.00" file="traffic.xml" freq="60"/>
 <e2Detector id="e2_3906206372_387316751#0-AddedOffRampEdge_1" lane="387316751#0-AddedOffRampEdge_1" pos="0.00" length="8.00" file="traffic.xml" freq="60"/>
 <e2Detector id="e2_3906206372_387316751#0-AddedOffRampEdge_0" lane="387316751#0-AddedOffRampEdge_0" pos="0.00" length="8.00" file="traffic.xml" freq="60"/>
 <e2Detector id="e2_3906204641_387316777#1_0" lane="387316777#1_0" pos="28.56" length="8.00" file="traffic.xml" freq="60"/>
 <e2Detector id="e2_3906204641_387316774_0" lane="387316774_0" pos="66.52" length="8.00" file="traffic.xml" freq="60"/>
 <e2Detector id="e2_1656768024_539081991_1" lane="539081991_1" pos="301.33" length="8.00" file="traffic.xml" freq="60"/>
 <e2Detector id="e2_1656768024_539081991_0" lane="539081991_0" pos="301.33" length="8.00" file="traffic.xml" freq="60"/>
 <e2Detector id="e2_8753604186_544131203#0_0" lane="544131203#0_0" pos="0.00" length="8.00" file="traffic.xml" freq="60"/>
 <e2Detector id="e2_8753604186_544131203#0_1" lane="544131203#0_1" pos="0.00" length="8.00" file="traffic.xml" freq="60"/>
 <e2Detector id="e2_1656768010_644488893#0_1" lane="644488893#0_1" pos="561.83" length="8.00" file="traffic.xml" freq="60"/>
 <e2Detector id="e2_1656768010_644488893#0_0" lane="644488893#0_0" pos="561.83" length="8.00" file="traffic.xml" freq="60"/>
 <e2Detector id="e2_1642311287_644488893#1_1" lane="644488893#1_1" pos="216.35" length="8.00" file="traffic.xml" freq="60"/>
 <e2Detector id="e2_1642311287_644488893#1_0" lane="644488893#1_0" pos="216.35" length="8.00" file="traffic.xml" freq="60"/>
 <e2Detector id="e2_1704938204_644488893#2_1" lane="644488893#2_1" pos="349.48" length="8.00" file="traffic.xml" freq="60"/>
 <e2Detector id="e2_1704938204_644488893#2_0" lane="644488893#2_0" pos="349.48" length="8.00" file="traffic.xml" freq="60"/>
 <e2Detector id="e2_1606446462_654320593#0_1" lane="654320593#0_1" pos="342.79" length="8.00" file="traffic.xml" freq="60"/>
 <e2Detector id="e2_1606446462_654320593#0_0" lane="654320593#0_0" pos="342.79" length="8.00" file="traffic.xml" freq="60"/>
 <e2Detector id="e2_joinedS_1656768019_5259900049_6176552382_934000186_0" lane="934000186_0" pos="0.00" length="8.00" file="traffic.xml" freq="60"/>
 <e2Detector id="e2_joinedS_1656768019_5259900049_6176552382_934000186_1" lane="934000186_1" pos="0.00" length="8.00" file="traffic.xml" freq="60"/>
 <e2Detector id="e2_joinedS_1656768019_5259900049_6176552382_932898684_2" lane="932898684_2" pos="66.99" length="8.00" file="traffic.xml" freq="60"/>
 <e2Detector id="e2_joinedS_1656768019_5259900049_6176552382_932898684_0" lane="932898684_0" pos="66.99" length="8.00" file="traffic.xml" freq="60"/>
 <e2Detector id="e2_joinedS_1656768019_5259900049_6176552382_659704566_0" lane="659704566_0" pos="3.63" length="8.00" file="traffic.xml" freq="60"/>
 <e2Detector id="e2_joinedS_1656768019_5259900049_6176552382_934000184_1" lane="934000184_1" pos="0.00" length="8.00" file="traffic.xml" freq="60"/>
 <e2Detector id="e2_joinedS_1656768019_5259900049_6176552382_932898684_1" lane="932898684_1" pos="66.99" length="8.00" file="traffic.xml" freq="60"/>
 <e2Detector id="e2_joinedS_1656768019_5259900049_6176552382_934000184_0" lane="934000184_0" pos="0.00" length="8.00" file="traffic.xml" freq="60"/>
 <e2Detector id="e2_1642311512_932637640#1_0" lane="932637640#1_0" pos="0.00" length="8.00" file="traffic.xml" freq="60"/>
</additional>