<?xml version="1.0" encoding="UTF-8"?>

<!-- generated on 2025-11-23 21:55:47.867800 by randomTrips.py UNKNOWN
<configuration>
    <net-file value="/mnt/c/UNIP/TCC_SUMO/scenarios/from_osm/osm.net.xml"/>
    <output-trip-file value="/mnt/c/UNIP/TCC_SUMO/scenarios/from_osm/trips.xml"/>
    <route-file value="/mnt/c/UNIP/TCC_SUMO/scenarios/from_osm/osm.rou.xml"/>
    <period value="2.5"/>
</configuration>
-->

<!-- generated on 2025-11-23 21:55:47 by Eclipse SUMO duarouter Version 1.24.0
<duarouterConfiguration xmlns:xsi="http://www.w3.org/2001/XMLSchema-instance" xsi:noNamespaceSchemaLocation="http://sumo.dlr.de/xsd/duarouterConfiguration.xsd">

    <input>
        <net-file value="/mnt/c/UNIP/TCC_SUMO/scenarios/from_osm/osm.net.xml"/>
        <route-files value="/mnt/c/UNIP/TCC_SUMO/scenarios/from_osm/trips.xml"/>
    </input>

    <output>
        <output-file value="/mnt/c/UNIP/TCC_SUMO/scenarios/from_osm/osm.rou.xml"/>
        <alternatives-output value="NUL"/>
    </output>

    <time>
        <begin value="0"/>
        <end value="3600.0"/>
    </time>

    <report>
        <no-warnings value="true"/>
        <ignore-errors value="true"/>
        <no-step-log value="true"/>
    </report>

</duarouterConfiguration>
-->

<routes xmlns:xsi="http://www.w3.org/2001/XMLSchema-instance" xsi:noNamespaceSchemaLocation="http://sumo.dlr.de/xsd/routes_file.xsd">
    <vehicle id="0" depart="0.00">
        <route edges="537562693#2 537562693#3 -924626944 780264591 781000683 160177481 676699254 1415329635 1414981499#0 1414981499#1 226640218 226640219#0 226640219#1 226640219#2 1163037322#0 1163037322#1 1163037323 387316777#0 387316777#1 387316777#2 387316777#3 387316777#4-AddedOnRampEdge 387316777#4 387316751#0 387316751#0-AddedOffRampEdge 387316751#1 387316751#2 1426337579#0 1426337579#1 387316797#0 387316797#1 1426337580 1426337581#1 1426337581#2 -1426337579#1 -1426337579#0"/>
    </vehicle>
    <vehicle id="1" depart="2.50">
        <route edges="128754478 128754492 678302004#0 678302004#0-AddedOffRampEdge 128754484 605403728 776547477 776547478 605403730 977065758 977065758-AddedOffRampEdge 159603632 387316789#2-AddedOnRampEdge 387316789#2 387316789#2-AddedOffRampEdge 387316789#3 387316789#4 387316789#5 -1163037323 1163037324#0 1163037324#1 -226640219#2 387316714 -652483193#3 -652483193#2 -652483193#1 -652483193#0 -173157406 -332465801#1 -332465801#0 -1041218833 -1041218832#1 -1041218832#0 -971029276#1"/>
    </vehicle>
    <vehicle id="2" depart="5.00">
        <route edges="932653880#0 932653880#1 1410776028#0 1410776028#1 780264592 924626944 -537562693#3 -537562693#2 -537562693#1 -537562693#0 313850654 537562688#3 537562694 -932637641 934023451#0 934023451#1 934023451#2 -656303108 -654290512 -315961605#1 -315961605#0"/>
    </vehicle>
    <vehicle id="3" depart="7.50">
        <route edges="-1426337579#1 -1426337579#0 387316789#0 159603627 952418861 605403729#1 128754482-AddedOnRampEdge 128754482 934064140 151253385 934064141 134667407#0 134667407#1 134667407#2 182105794 932651119 932651468 932651118#0 932651118#1 160056863 -160056863 -932651118#1 -932651118#0"/>
    </vehicle>
    <vehicle id="4" depart="10.00">
        <route edges="719473885#1 932918002 932918003 -932918003 -932918002 -719473885#1 -719473885#0 -932920605 -932920606 147215682 -924643996 -924643997#1 535826747 -932924805 -152906302 163294290 932630552 932630551#0 932630551#1 932630551#2 537562690 537562688#1 537562688#2 537562688#3 537562694 -932637641 934023451#0 1184903299#0 1184903299#1-AddedOnRampEdge 1184903299#1 932640558 1185176014 601848588 -160056863 -932651118#1 -932651118#0 -932651468 -932651119 -934299217 -387316728#2 -387316728#1 -387316728#0 387316734 945436718 1410776028#0 387316722 -387316691 -387316701 -387316704 387316712 387316714 -652483193#3 -652483193#2 -652483193#1 -652483193#0 -173157406 -332465801#1 -332465801#0 -1041218833 -1041218832#1"/>
    </vehicle>
    <vehicle id="5" depart="12.50">
        <route edges="719473884 932920606 932920605 -932920605 -932920606 147215682 -924643996 -924643997#1 535826747 -932924805 -152906302 163294290 932630552 932630551#0 932630551#1 932630551#2 537562690 537562688#1 537562688#2 537562688#3 537562694 -932637641 934023451#0 1184903299#0 1184903299#1-AddedOnRampEdge 1184903299#1 932640558 1185176014 601848588 -160056863 -932651118#1 -932651118#0 -932651468 -932651119 -934299217 -387316728#2 -387316728#1 -387316728#0 387316734 945436718 1410776028#0 387316722 -387316691 -387316701 -387316704 387316712 387316714 -652483193#3 -652483193#2 -652483193#1 -652483193#0 -173157406 332465801#2 332465801#3 332465801#4 173869738 404964680 532707609 173082282-AddedOnRampEdge 173082282 173157388 -1300063415 1290162292#0 1290162292#1 1183566841#0 1183566841#1 313156229 -520721277 520723607#1 520721276#0 548731029"/>
    </vehicle>
    <vehicle id="6" depart="15.00">
        <route edges="1410776028#2 781000683 160177481 676699254 1415329635 1414981499#0 1414981499#1 226640218 226640219#0 226640219#1 387316714 -652483193#3 -652483193#2 -652483193#1 -652483193#0"/>
    </vehicle>
    <vehicle id="7" depart="17.50">
        <route edges="934352074 934441505 315961605#0 315961605#1 654290512 656303108 932637640#0 934023450#0 934023450#1 1184903299#1-AddedOnRampEdge 1184903299#1 932640558 1185176014 601848588 -160056863 -932651118#1 -932651118#0 -932651468 -932651119 -182105794 -134667407#2 -134667407#1 -134667407#0 934064139 134667421#0 134667421#1"/>
    </vehicle>
    <vehicle id="8" depart="20.00">
        <route edges="-332465801#5 -332465801#4 -332465801#3"/>
    </vehicle>
    <vehicle id="9" depart="22.50">
        <route edges="924761511 539081994#2 539081994#3 539081994#0 932602854 208937204 659704566 934000185 934000184 934000187 695757831 544131201 539082002 539082008 539082000 -159603631 -924761512 -924626944 780264591 781000683 160177481 676699254 1415329635 1414981499#0 1414981499#1 226640218 226640219#0 226640219#1 226640219#2 1163037322#0 1163037322#1 1163037323 387316777#0 387316777#1 387316777#2 387316777#3 387316777#4-AddedOnRampEdge 387316777#4 387316751#0 387316751#0-AddedOffRampEdge 387316751#1 387316751#2 1426337579#0 1426337579#1 387316797#0 387316797#1 387316797#2 1426337578 470655994#0 470655994#1"/>
    </vehicle>
    <vehicle id="10" depart="25.00">
        <route edges="719473885#0 719473885#1 932918002 932918003 -932918003 -932918002 -719473885#1 -719473885#0 -932920605 -932920606 147215682 -924643996 -924643997#1 535826747 -932924805 -152906302 163294290 932630552 932630551#0 932630551#1 932630551#2 537562690 537562688#1 537562688#2 537562688#3 537562694 -932637641 934023451#0 1184903299#0 1184903299#1-AddedOnRampEdge 1184903299#1 932640558 1185176014 601848588 -160056863 -932651118#1 -932651118#0 -932651468 -932651119 -934299217 -387316728#2 -387316728#1 -387316728#0 387316734 945436718 1410776028#0 387316722 -387316691 -387316701 -387316704 387316712 387316714 -652483193#3 -652483193#2 -652483193#1 -652483193#0 -173157406 332465801#2 332465801#3 -520721248 188822664 647523024#2 647523024#3 832624651#0 647523019 647523017"/>
    </vehicle>
    <vehicle id="11" depart="27.50">
        <route edges="387316751#0 387316751#0-AddedOffRampEdge 387316751#1 159603639 159603627 952418861 605403729#1 128754482-AddedOnRampEdge 128754482 934064140 128754480#0 128754480#1-AddedOnRampEdge 128754480#1 128754480#2-AddedOnRampEdge 128754480#2 936761956"/>
    </vehicle>
    <vehicle id="12" depart="30.00">
        <route edges="159603632 387316789#2-AddedOnRampEdge 387316789#2 387316789#2-AddedOffRampEdge 387316789#3 387316789#4 387316789#5 -1163037323 1163037324#0 1163037324#1 -226640219#2 226640219#2 1163037322#0 1163037322#1 1163037323 387316777#0 387316777#1"/>
    </vehicle>
    <vehicle id="13" depart="32.50">
        <route edges="781000684 1410776028#2 781000683 160177481 676699254 1415329635 1414981499#0 1414981499#1 226640218 226640219#0 226640219#1 387316714 -652483193#3 -652483193#2 -652483193#1 -652483193#0 -173157406 332465801#2 332465801#3 -520721248 188822664 647523024#2 647523024#3 832624651#0 647523019 -520721245#1 -520721245#0 -196885601 173102115 173163404 -173163404 -173102115 196885601 520721245#0"/>
    </vehicle>
    <vehicle id="14" depart="35.00">
        <route edges="932630551#1 932630551#2 537562690 537562688#1 537562688#2 537562688#3 537562694 -932637641 934023451#0 1184903299#0 1184903299#1-AddedOnRampEdge 1184903299#1 932640558 1185176014 601848588 -160056863 -932651118#1 -932651118#0 -932651468 -932651119 -934299217 -387316728#2 -387316728#1 -387316728#0 387316734 945436718 1410776028#0 387316722 -387316691 -387316701 -387316704 387316712 226640219#2 1163037322#0 1163037322#1 1163037323 387316777#0 387316777#1 387316777#2 387316777#3 387316777#4-AddedOnRampEdge 387316777#4 387316751#0 387316751#0-AddedOffRampEdge 387316751#1 159603639 387316789#1 387316789#2-AddedOnRampEdge 387316789#2 387316789#2-AddedOffRampEdge 387316789#3"/>
    </vehicle>
    <vehicle id="15" depart="37.50">
        <route edges="605403729#1 128754482-AddedOnRampEdge 128754482 934064140 128754480#0 128754480#1-AddedOnRampEdge 128754480#1 128754480#2-AddedOnRampEdge 128754480#2 134667409 932653879 932653880#0 932653880#1 1410776028#0 387316722 -387316691 -387316701 -387316704 387316712 387316714 -652483193#3 -652483193#2 -652483193#1 -652483193#0 -173157406 332465801#2 332465801#3 332465801#4 332465801#5 173075786 173075651#0 -173075651#0"/>
    </vehicle>
    <vehicle id="16" depart="40.00">
        <route edges="-319268123 -932640557 -160056863 -932651118#1 -932651118#0 -932651468 -932651119 -934299217 -387316728#2 -387316728#1 -387316728#0 387316734 945436718 1410776028#0 387316722 -387316691 -387316701 -387316704 387316712 387316714 -652483193#3 -652483193#2 -652483193#1 -652483193#0 -173157406 -332465801#1 -332465801#0 -1041218833 -1041218832#1 -1041218832#0 -971029276#1 -971029276#0 332464204 332464205#3 332464205#4 332464205#5 332464205#6 332464205#0 332464205#1 332465800 971029276#0 971029276#1 1041218832#0 1041218832#1"/>
    </vehicle>
    <vehicle id="17" depart="42.50">
        <route edges="537562693#0 537562693#1 537562693#2 537562693#3 -924626944 780264591 781000683 160177481 676699254 1415329635 1414981499#0 1414981499#1 226640218 226640219#0 226640219#1 226640219#2 1163037322#0 1163037322#1 1163037323 387316777#0 387316777#1 387316777#2 387316777#3 387316777#4-AddedOnRampEdge 387316777#4 387316751#0 387316751#0-AddedOffRampEdge 387316751#1 159603639 159603627 952418861 605403729#1 128754482-AddedOnRampEdge 128754482 934064140 151253385"/>
    </vehicle>
    <vehicle id="18" depart="45.00">
        <route edges="537562695 537562688#5 537562688#0 537562688#1 537562688#2 537562688#3 537562694 -932637641 934023451#0 1184903299#0 1184903299#1-AddedOnRampEdge 1184903299#1 932640558 1185176014 601848588 -160056863 -932651118#1 -932651118#0 -932651468 -932651119 -934299217 -387316728#2 -387316728#1 -387316728#0 387316734 945436718 1410776028#0 387316722 -387316691 -387316701 -387316704 387316712 387316714 -652483193#3 -652483193#2 -652483193#1 -652483193#0 -173157406 332465801#2 332465801#3 -520721248 188822664 647523024#2 520717406#0 520717406#1 520717405#0"/>
    </vehicle>
    <vehicle id="19" depart="47.50">
        <route edges="-924643996 -924643997#1 535826747 -932924805 -152906302 163294290 932630552 932630551#0 932630551#1 932630551#2 537562690 537562688#1 537562688#2 537562688#3 537562694 -932637641 934023451#0 1184903299#0 1184903299#1-AddedOnRampEdge 1184903299#1 932640558 1185176014 601848588 -160056863 -932651118#1 -932651118#0 -932651468 -932651119 -934299217 -387316728#2 -387316728#1 -387316728#0 387316734 945436718 1410776028#0 387316722 -387316691 -387316701 -387316704 387316712 387316714 -652483193#3 -652483193#2 -652483193#1 -652483193#0 -173157406 332465801#2 332465801#3 -520721248 188822664 647523024#2 647523024#3 832624651#0 647523019 647523017"/>
    </vehicle>
    <vehicle id="20" depart="50.00">
        <route edges="924643997#0 535826747 -932924805 -152906302 163294290 932630552 932630551#0 932630551#1 932630551#2 537562690 537562688#1 410045891 537562693#0 537562693#1 537562693#2 537562693#3 924761512 159603631 -539082000 539082005 539082003 544131202#0 544131202#0-AddedOffRampEdge 544131202#1 544131202#1-AddedOffRampEdge 932898684 659704562 659704564#1 -208937204 924761511 539081994#2 539081994#3 539081994#0 932602854 208937204 659704566"/>
    </vehicle>
    <vehicle id="21" depart="52.50">
        <route edges="134667407#2 182105794 -182105794 -134667407#2 -134667407#1 -134667407#0 934064139 134667421#0 134667421#1 934064138 134667419#2 952418860 128754490 128754475"/>
    </vehicle>
    <vehicle id="22" depart="55.00">
        <route edges="-934299217 -387316728#2 -387316728#1 -387316728#0 387316734 945436718 1410776028#0 1410776028#1 780264592 924626944 -537562693#3 -537562693#2 -537562693#1 -537562693#0 313850654 537562688#3 537562694 -932637641 934023451#0 934023451#1 934023450#1"/>
    </vehicle>
    <vehicle id="23" depart="57.50">
        <route edges="932640557 319268123 -319268123 -932640557 -160056863 -932651118#1 -932651118#0 -932651468 -932651119 -934299217 -387316728#2 -387316728#1 -387316728#0 387316734 945436718 1410776028#0 387316722 -387316691 -387316701 -387316704 387316712 387316714 -652483193#3 -652483193#2 -652483193#1 -652483193#0 -173157406 332465801#2 332465801#3 332465801#4 173869738 404964680 532707609 173082282-AddedOnRampEdge 173082282 173157388 -1300063415 1300063415"/>
    </vehicle>
    <vehicle id="24" depart="60.00">
        <route edges="539082002 539082008 539082000 -159603631 -924761512 -924626944 780264591 781000683 160177481 676699254 1415329635 1414981499#0 1414981499#1 226640218 226640219#0 226640219#1 387316714 -652483193#3 -652483193#2 -652483193#1 -652483193#0 -173157406 332465801#2 332465801#3 -520721248 188822664 647523024#2 520717406#0 520717406#1 520717405#0 -593840566 173075556#1"/>
    </vehicle>
    <vehicle id="25" depart="62.50">
        <route edges="932920605 -932920605 -932920606 147215682 -924643996 -924643997#1 535826747 -932924805 -152906302 163294290 932630552 932630551#0 932630551#1 932630551#2 537562690 537562688#1 537562688#2 537562688#3 537562694 -932637641 934023451#0 1184903299#0 1184903299#1-AddedOnRampEdge 1184903299#1 932640558 1185176014 601848588 -160056863 -932651118#1 -932651118#0 -932651468 -932651119 -934299217 -387316728#2 -387316728#1 -387316728#0 387316734 945436718 1410776028#0 387316722 -387316691 -387316701 -387316704 387316712 387316714 -652483193#3 -652483193#2 -652483193#1 -652483193#0 -173157406 332465801#2 332465801#3 332465801#4 173869738 404964680 532707609 173082282-AddedOnRampEdge 173082282 173157388 -1300063415 1290162292#0 1290162292#1 1183566841#0 1183566841#1 313156228"/>
    </vehicle>
    <vehicle id="26" depart="65.00">
        <route edges="126230861 128754477 128754478 128754492 678302004#0 678302004#0-AddedOffRampEdge 128754484 605403728 776547477 776547478 605403730 977065758 977065758-AddedOffRampEdge 159603632 387316789#2-AddedOnRampEdge 387316789#2 387316789#2-AddedOffRampEdge 387316789#3 387316789#4 387316789#5 -1163037323 1163037324#0 1163037324#1"/>
    </vehicle>
    <vehicle id="27" depart="67.50">
        <route edges="410045890 656303108 932637640#0 934023450#0 934023450#1 1184903299#1-AddedOnRampEdge 1184903299#1 932640558 1185176014 601848588 -160056863 -932651118#1 -932651118#0 -932651468 -932651119 932651119 932651468"/>
    </vehicle>
    <vehicle id="28" depart="70.00">
        <route edges="173075651#0 173075651#1 173075651#2 647523021#0 970011738 -970011738"/>
    </vehicle>
    <vehicle id="29" depart="72.50">
        <route edges="977065758 977065758-AddedOffRampEdge 159603632 387316789#2-AddedOnRampEdge 387316789#2 387316789#2-AddedOffRampEdge 387316789#3 387316789#4 387316789#5 -1163037323 1163037324#0 1163037324#1 -226640219#2 387316714 -652483193#3 -652483193#2 -652483193#1 -652483193#0 -173157406 332465801#2 332465801#3 332465801#4 173869738 404964680 532707609 173082282-AddedOnRampEdge 173082282 173157388 -1300063415 1290162292#0 1290162292#1 1183566841#0 364183452 364183447 348770180 353547031#0 353547031#1"/>
    </vehicle>
    <vehicle id="30" depart="75.00">
        <route edges="-332465801#4 332465801#4 332465801#5 173075786 173075651#0 -173075651#0"/>
    </vehicle>
    <vehicle id="31" depart="77.50">
        <route edges="-387316728#1 -387316728#0 387316734 945436718 1410776028#0 387316722 -387316691 -387316701 -387316704 387316712 387316714 -652483193#3 -652483193#2 -652483193#1 -652483193#0 -173157406 332465801#2 332465801#3 332465801#4 173869738 404964680 532707609 173082282-AddedOnRampEdge 173082282 173157388 -1300063415 1290162292#0 1290162292#1 173869736#0 173869736#1 520721260#0 520721260#1"/>
    </vehicle>
    <vehicle id="32" depart="80.00">
        <route edges="977065758 977065758-AddedOffRampEdge 159603632 387316789#2-AddedOnRampEdge 387316789#2 387316789#2-AddedOffRampEdge 387316789#3 387316789#4 387316789#5 -1163037323 1163037324#0 1163037324#1 -226640219#2 -387316712 387316704 387316701 387316691 387316725 932653881 134667414 387316728#0 387316728#1"/>
    </vehicle>
    <vehicle id="33" depart="82.50">
        <route edges="945436718 1410776028#0 1410776028#1 780264592 924626944 924761512"/>
    </vehicle>
    <vehicle id="34" depart="85.00">
        <route edges="544131204#0 932904849 544131205#1 932904847 544131200 934000184 934000187 695757831 544131201 539082002 539082008 539082000 -159603631 -924761512 -924626944 780264591 781000683 160177481 676699254 1415329635 1414981499#0 1414981499#1 226640218 226640219#0 226640219#1 226640219#2 1163037322#0 1163037322#1 1163037323 387316777#0 387316777#1 387316777#2 387316777#3 387316777#4-AddedOnRampEdge 387316777#4 387316751#0"/>
    </vehicle>
    <vehicle id="35" depart="87.50">
        <route edges="-387316728#2 -387316728#1 -387316728#0 387316734 945436718 1410776028#0 387316722 -387316691 -387316701 -387316704 387316712 387316714 -652483193#3 -652483193#2 -652483193#1 -652483193#0 -173157406 332465801#2 332465801#3 -520721248 188822664 647523024#2 647523024#3 832624651#0 647523019 -520721245#1 -520721245#0 -196885601 173102115 173163404 -173163404 -173102115 196885601"/>
    </vehicle>
    <vehicle id="36" depart="90.00">
        <route edges="226640219#1 -387316712 387316704 387316701 387316691 387316725 932653881 134667414 387316728#0 387316728#1 387316728#2 934299217 -182105794 -134667407#2 -134667407#1 -134667407#0 934064139"/>
    </vehicle>
    <vehicle id="37" depart="92.50">
        <route edges="932918002 932918003 -932918003 -932918002 -719473885#1 -719473885#0 -932920605 -932920606 147215682 -924643996 -924643997#1 535826747 -932924805 -152906302 163294290 932630552 932630551#0 932630551#1"/>
    </vehicle>
    <vehicle id="38" depart="95.00">
        <route edges="659704564#1 -208937204 924761511 539081994#2 539081994#3 539081994#0 932602854 208937204 659704566 934000185 934000184 934000187 695757831 544131201 539082002 539082008 539082000 -159603631 -924761512 -924626944 780264591 781000683 160177481 676699254 1415329635 1414981499#0 1414981499#1 226640218 226640219#0 226640219#1 226640219#2 1163037322#0 1163037322#1 1163037323 387316777#0 387316777#1 387316777#2 387316777#3 387316777#4-AddedOnRampEdge 387316777#4 387316751#0 387316751#0-AddedOffRampEdge"/>
    </vehicle>
    <vehicle id="39" depart="97.50">
        <route edges="-1001201950 470655976 -1426337578 1426337581#0 1426337581#1 1426337581#2 -1426337579#1 -1426337579#0 387316789#0 387316789#1 387316789#2-AddedOnRampEdge 387316789#2 387316789#2-AddedOffRampEdge 387316789#3 387316789#4 387316789#5 -1163037323 1163037324#0 1163037324#1 -226640219#2 -387316712 387316704 387316701 387316691 387316725 932653881 134667414"/>
    </vehicle>
    <vehicle id="40" depart="100.00">
        <route edges="-134667407#2 -134667407#1 -134667407#0 934064139 134667421#0 134667421#1 134667421#2 128754480#2-AddedOnRampEdge 128754480#2 134667409 932653879 932653880#0 932653880#1 1410776028#0 1410776028#1 780264592 924626944 -537562693#3 -537562693#2 -537562693#1 -537562693#0 313850654 537562688#3 537562688#4 537562688#5 537562689 -932630551#2 -932630551#1 -932630551#0 -932630552 -163294290 152906302 932924805"/>
    </vehicle>
    <vehicle id="41" depart="102.50">
        <route edges="932640558 1185176014 601848588 -160056863 -932651118#1 -932651118#0 -932651468 -932651119 -934299217 -387316728#2 -387316728#1 -387316728#0 387316734 945436718 1410776028#0 387316722 -387316691 -387316701 -387316704 387316712 387316714 -652483193#3 780502930"/>
    </vehicle>
    <vehicle id="42" depart="105.00">
        <route edges="1290162293#1 1290162292#0 1290162292#1 1183566841#0 364183452 364183447 348770180 353547031#0 353547031#1 -173869738 332465801#5 173075786 173075651#0 -173075651#0 -173075786"/>
    </vehicle>
    <vehicle id="43" depart="107.50">
        <route edges="932640558 1185176014 601848588 -160056863 -932651118#1 -932651118#0 -932651468 -932651119 -934299217 -387316728#2 -387316728#1 -387316728#0 387316734 945436718 1410776028#0 1410776028#1 780264592 924626944 -537562693#3 -537562693#2 -537562693#1 -537562693#0 313850654 537562688#3 537562694 -932637641 934023451#0 934023451#1"/>
    </vehicle>
    <vehicle id="44" depart="110.00">
        <route edges="-332465801#2 -332465801#1 -332465801#0 -1041218833 -1041218832#1 -1041218832#0 -971029276#1 -971029276#0 332464204 332464205#3 332464205#4 332464205#5 332464205#6 332464205#0 332464205#1 332465800 971029276#0 971029276#1 1041218832#0 1041218832#1 1041218833 332465801#0 332465801#1"/>
    </vehicle>
    <vehicle id="45" depart="112.50">
        <route edges="-226640219#0 226640216 160177477 676699255 781000684 780264592 924626944 -537562693#3 -537562693#2 -537562693#1 -537562693#0 313850654 537562688#3 537562694 -932637641 934023451#0 934023451#1 934023451#2 -656303108 -654290512 -315961605#1 315961605#1 654290512"/>
    </vehicle>
    <vehicle id="46" depart="115.00">
        <route edges="659704566 934000185 934000184 934000187 695757831 544131201 539082002 539082008 539082000 -159603631 -924761512 -924626944 780264591 781000683 160177481 676699254 1415329635 1414981499#0 1414981499#1 226640218 226640219#0 226640219#1 387316714 -652483193#3 -652483193#2 -652483193#1 -652483193#0 -173157406 332465801#2 332465801#3 -520721248 188822664 647523024#2 647523024#3 832624651#0 647523019 -520721245#1 -520721245#0"/>
    </vehicle>
    <vehicle id="47" depart="117.50">
        <route edges="387316751#1 159603639 387316789#1 387316789#2-AddedOnRampEdge 387316789#2 387316789#2-AddedOffRampEdge 387316789#3 387316789#4 387316789#5 -1163037323 1163037324#0 1163037324#1 -226640219#2 387316714 -652483193#3 -652483193#2 -652483193#1 -652483193#0 -173157406 332465801#2 332465801#3 -520721248 188822664 647523024#2 647523024#3 832624651#0 647523019 647523017"/>
    </vehicle>
    <vehicle id="48" depart="120.00">
        <route edges="-932918003 -932918002 -719473885#1 -719473885#0 -932920605 -932920606 147215682 -924643996 -924643997#1 535826747 -932924805 -152906302 163294290 932630552 932630551#0 932630551#1 932630551#2 537562690 537562688#1 537562688#2 537562688#3 537562694 -932637641 934023451#0 1184903299#0 1184903299#1-AddedOnRampEdge 1184903299#1 932640558 1185176014 601848588 -160056863 -932651118#1 -932651118#0 -932651468 -932651119 -934299217 -387316728#2 -387316728#1 -387316728#0 387316734 945436718 1410776028#0 387316722 -387316691 -387316701 -387316704 387316712 387316714 -652483193#3 -652483193#2 -652483193#1 -652483193#0 -173157406 332465801#2 332465801#3 332465801#4 173869738 404964680 532707609 173082282-AddedOnRampEdge 173082282 173157388 -1300063415 1290162292#0 1290162292#1 1183566841#0 364183452 364183447 1290162293#0 1290162293#1"/>
    </vehicle>
    <vehicle id="49" depart="122.50">
        <route edges="1410776028#1 1410776028#2 781000683 160177481 676699254 1415329635 1414981499#0 1414981499#1 226640218 226640219#0 226640219#1 387316714 -652483193#3 -652483193#2 -652483193#1 -652483193#0 -173157406 332465801#2 332465801#3 332465801#4 173869738 404964680"/>
    </vehicle>
    <vehicle id="50" depart="125.00">
        <route edges="1041218833 332465801#0 332465801#1 -332465801#1 -332465801#0 -1041218833 -1041218832#1 -1041218832#0 -971029276#1 -971029276#0"/>
    </vehicle>
    <vehicle id="51" depart="127.50">
        <route edges="-226640219#0 226640216 1414981499#3 1415329635 1414981499#0 1414981499#1 226640218 226640219#0 226640219#1 387316714 -652483193#3 -652483193#2 -652483193#1 -652483193#0 -173157406 332465801#2 332465801#3 332465801#4 173869738 404964680 532707609"/>
    </vehicle>
    <vehicle id="52" depart="130.00">
        <route edges="932630551#0 932630551#1 932630551#2 537562690 537562688#1 537562688#2 537562688#3 537562694 -932637641 934023451#0 1184903299#0 1184903299#1-AddedOnRampEdge 1184903299#1 932640558 1185176014 601848588 -160056863 -932651118#1 -932651118#0 -932651468 -932651119 -934299217 -387316728#2 -387316728#1 -387316728#0 387316734 945436718 1410776028#0 387316722 -387316691 -387316701 -387316704 387316712 387316714 -652483193#3 -652483193#2 -652483193#1 -652483193#0 -173157406 332465801#2 332465801#3 332465801#4 173869738 -173869738"/>
    </vehicle>
    <vehicle id="53" depart="132.50">
        <route edges="1163037323 387316777#0 387316777#1 387316777#2 1163037329 387316789#4 387316789#5 -1163037323 1163037324#0 1163037324#1 -226640219#2 -226640219#1 -226640219#0 226640216 160177477 676699255 781000684 780264592 924626944 924761512 159603631 -539082000 539082005 539082003 544131202#0 544131202#0-AddedOffRampEdge 544131202#1 544131202#1-AddedOffRampEdge 932898684 932898685 934000186 934000185 934000184 934000187 695757831 544131201 539082002 539082008"/>
    </vehicle>
    <vehicle id="54" depart="135.00">
        <route edges="-971029276#0 332464204 332464205#3 332464205#4 332464205#5 332464205#6 332464205#0 332464205#1 332465800 971029276#0 971029276#1 1041218832#0 1041218832#1 1041218833 332465801#0 332465801#1 332465801#2 332465801#3 -520721248 188822664 647523024#2 647523024#3 832624651#0 647523019 -520721245#1"/>
    </vehicle>
    <vehicle id="55" depart="137.50">
        <route edges="934023451#0 1184903299#0 1184903299#1-AddedOnRampEdge 1184903299#1 932640558 1185176014 601848588 -160056863 -932651118#1 -932651118#0 -932651468 -932651119 -934299217 -387316728#2 -387316728#1 -387316728#0 387316734 945436718 1410776028#0 387316722 -387316691 -387316701 -387316704 387316712 226640219#2 1163037322#0 1163037322#1 1163037323 387316777#0 387316777#1 387316777#2 387316777#3 387316777#4-AddedOnRampEdge 387316777#4 387316751#0 387316751#0-AddedOffRampEdge 387316751#1 159603639 387316789#1 387316789#2-AddedOnRampEdge 387316789#2"/>
    </vehicle>
    <vehicle id="56" depart="140.00">
        <route edges="719473885#0 719473885#1 932918002 932918003 -932918003 -932918002 -719473885#1 -719473885#0 -932920605 -932920606 147215682 -924643996 -924643997#1 535826747 -932924805 -152906302 163294290 932630552 932630551#0 932630551#1 932630551#2 537562690 537562688#1 537562688#2 537562688#3 537562688#4 537562688#5 537562689 -932630551#2"/>
    </vehicle>
    <vehicle id="57" depart="142.50">
        <route edges="-332465801#7 -332465801#6 -332465801#5 -332465801#4 -520721248 188822664"/>
    </vehicle>
    <vehicle id="58" depart="145.00">
        <route edges="952471421 134667421#1 134667421#2 128754480#2-AddedOnRampEdge 128754480#2 134667409 932653879 932653880#0 932653880#1 1410776028#0 387316722 -387316691 -387316701 -387316704 387316712 387316714 -652483193#3 -652483193#2 -652483193#1 -652483193#0 -173157406 332465801#2 332465801#3 332465801#4 -332465801#4"/>
    </vehicle>
    <vehicle id="59" depart="147.50">
        <route edges="932630551#1 932630551#2 537562690 537562688#1 537562688#2 537562688#3 537562694 -932637641 934023451#0 1184903299#0 1184903299#1-AddedOnRampEdge 1184903299#1 932640558 1185176014 601848588 -160056863 -932651118#1 -932651118#0 -932651468 -932651119 -934299217 -387316728#2 -387316728#1 -387316728#0 387316734 945436718 1410776028#0 387316722 -387316691 -387316701 -387316704 387316712 226640219#2 1163037322#0 1163037322#1 1163037323 387316777#0 387316777#1 387316777#2 1163037329"/>
    </vehicle>
    <vehicle id="60" depart="150.00">
        <route edges="-932651118#0 -932651468 -932651119 -934299217 -387316728#2 -387316728#1 -387316728#0 387316734 945436718 1410776028#0 1410776028#1 1410776028#2 781000683 160177481 676699254 1415329635 1414981499#0 1414981499#1 226640218 226640219#0"/>
    </vehicle>
    <vehicle id="61" depart="152.50">
        <route edges="1184903299#1 932640558 1185176014 601848588 -160056863 -932651118#1 -932651118#0 -932651468 -932651119 -934299217 -387316728#2 -387316728#1 -387316728#0 387316734 945436718 1410776028#0 1410776028#1 780264592 924626944 -537562693#3 -537562693#2 -537562693#1 -537562693#0 313850654 537562688#3 537562688#4 537562688#5 537562689 -932630551#2 -932630551#1 -932630551#0 -932630552 -163294290 152906302 932924805 773876436 924643997#0 924643997#1 719473884 932920606 932920605 719473885#0 719473885#1 932918002 932918003"/>
    </vehicle>
    <vehicle id="62" depart="155.00">
        <route edges="387316777#3 387316777#4-AddedOnRampEdge 387316777#4 387316751#0 387316751#0-AddedOffRampEdge 387316751#1 159603639 387316789#1 387316789#2-AddedOnRampEdge 387316789#2 387316789#2-AddedOffRampEdge 387316789#3 387316789#4 387316789#5 -1163037323 1163037324#0 1163037324#1 -226640219#2 387316714 -652483193#3 -652483193#2 -652483193#1 -652483193#0 -173157406 332465801#2 332465801#3 -520721248 188822664 647523024#2 520717406#0 520717406#1 173075651#2 -173075651#2"/>
    </vehicle>
    <vehicle id="63" depart="157.50">