<?xml version="1.0" encoding="UTF-8"?>

<!-- generated on 2025-11-24 02:45:47 by Eclipse SUMO netconvert Version 1.24.0
<netconvertConfiguration xmlns:xsi="http://www.w3.org/2001/XMLSchema-instance" xsi:noNamespaceSchemaLocation="http://sumo.dlr.de/xsd/netconvertConfiguration.xsd">

    <input>
        <osm-files value="/mnt/c/UNIP/sumo-beck/scenarios/from_osm/map_sumo.osm.xml"/>
    </input>

    <output>
        <output-file value="/mnt/c/UNIP/sumo-beck/scenarios/from_osm/osm.net.xml"/>
    </output>

    <projection>
        <proj.utm value="true"/>
    </projection>

    <processing>
        <geometry.remove value="false"/>
    </processing>

    <tls_building>
        <tls.guess value="true"/>
        <tls.join value="true"/>
    </tls_building>

    <ramp_guessing>
        <ramps.guess value="true"/>
    </ramp_guessing>

    <edge_removal>
        <keep-edges.components value="1"/>
    </edge_removal>

</netconvertConfiguration>
-->

<net version="1.20" junctionCornerDetail="5" limitTurnSpeed="5.50" xmlns:xsi="http://www.w3.org/2001/XMLSchema-instance" xsi:noNamespaceSchemaLocation="http://sumo.dlr.de/xsd/net_file.xsd">

    <location netOffset="-311549.20,2606965.60" convBoundary="0.00,0.00,5331.82,3546.89" origBoundary="-46.846046,-23.562281,-46.794036,-23.530463" projParameter="+proj=utm +zone=23 +ellps=WGS84 +datum=WGS84 +units=m +no_defs"/>

    <type id="highway.motorway" priority="14" numLanes="2" speed="39.44" allow="private emergency authority army vip passenger hov taxi bus coach delivery truck trailer motorcycle evehicle custom1 custom2" oneway="1"/>
    <type id="highway.motorway_link" priority="9" numLanes="1" speed="22.22" allow="private emergency authority army vip passenger hov taxi bus coach delivery truck trailer motorcycle evehicle custom1 custom2" oneway="1"/>
    <type id="highway.primary" priority="12" numLanes="2" speed="27.78" disallow="tram rail_urban rail rail_electric rail_fast ship container cable_car subway aircraft wheelchair scooter drone" oneway="0"/>
    <type id="highway.primary_link" priority="7" numLanes="1" speed="22.22" disallow="tram rail_urban rail rail_electric rail_fast ship container cable_car subway aircraft wheelchair scooter drone" oneway="0"/>
    <type id="highway.secondary" priority="11" numLanes="1" speed="27.78" disallow="tram rail_urban rail rail_electric rail_fast ship container cable_car subway aircraft wheelchair scooter drone" oneway="0"/>
    <type id="highway.secondary_link" priority="6" numLanes="1" speed="22.22" disallow="tram rail_urban rail rail_electric rail_fast ship container cable_car subway aircraft wheelchair scooter drone" oneway="0"/>

    <edge id=":10816372129_0" function="internal">
        <lane id=":10816372129_0_0" index="0" disallow="tram rail_urban rail rail_electric rail_fast ship container cable_car subway aircraft wheelchair scooter drone" speed="11.11" length="0.22" shape="2478.27,1582.49 2478.34,1582.69"/>
    </edge>
    <edge id=":10816372130_0" function="internal">
        <lane id=":10816372130_0_0" index="0" disallow="tram rail_urban rail rail_electric rail_fast ship container cable_car subway aircraft wheelchair scooter drone" speed="19.45" length="0.33" shape="2466.61,1558.96 2466.51,1558.65"/>
    </edge>
    <edge id=":10816372130_1" function="internal">
        <lane id=":10816372130_1_0" index="0" disallow="tram rail_urban rail rail_electric rail_fast ship container cable_car subway aircraft wheelchair scooter drone" speed="19.45" length="0.11" shape="2469.59,1557.79 2469.62,1557.90"/>
    </edge>
    <edge id=":10816372131_0" function="internal">
        <lane id=":10816372131_0_0" index="0" disallow="tram rail_urban rail rail_electric rail_fast ship container cable_car subway aircraft wheelchair scooter drone" speed="11.11" length="0.10" shape="2475.32,1584.78 2475.32,1584.78"/>
    </edge>
    <edge id=":10816372155_0" function="internal">
        <lane id=":10816372155_0_0" index="0" disallow="tram rail_urban rail rail_electric rail_fast ship container cable_car subway aircraft wheelchair scooter drone" speed="16.50" length="4.67" shape="2498.58,1351.35 2499.05,1350.06 2499.50,1349.22 2500.09,1348.46 2500.97,1347.39"/>
    </edge>
    <edge id=":10816372155_1" function="internal">
        <lane id=":10816372155_1_0" index="0" disallow="tram rail_urban rail rail_electric rail_fast ship container cable_car subway aircraft wheelchair scooter drone" speed="19.45" length="3.56" shape="2501.63,1352.34 2501.96,1351.35 2502.25,1350.68 2502.62,1350.05 2503.22,1349.19"/>
    </edge>
    <edge id=":10816372165_0" function="internal">
        <lane id=":10816372165_0_0" index="0" disallow="tram rail_urban rail rail_electric rail_fast ship container cable_car subway aircraft wheelchair scooter drone" speed="27.78" length="8.96" shape="2529.37,1350.71 2528.43,1353.08 2528.50,1355.00 2528.56,1356.92 2527.62,1359.30"/>
    </edge>
    <edge id=":10816372165_1" function="internal">
        <lane id=":10816372165_1_0" index="0" disallow="tram rail_urban rail rail_electric rail_fast ship container cable_car subway aircraft wheelchair scooter drone" speed="12.46" length="8.25" shape="2525.63,1349.57 2525.81,1352.04 2526.08,1353.81 2525.95,1355.46 2524.93,1357.56"/>
    </edge>
    <edge id=":11545638436_0" function="internal">
        <lane id=":11545638436_0_0" index="0" allow="private emergency authority army vip passenger hov taxi bus coach delivery truck trailer motorcycle evehicle custom1 custom2" speed="22.22" length="8.20" shape="2686.58,311.35 2685.97,309.01 2685.20,307.50 2684.43,305.99 2683.86,303.65"/>
        <lane id=":11545638436_0_1" index="1" allow="private emergency authority army vip passenger hov taxi bus coach delivery truck trailer motorcycle evehicle custom1 custom2" speed="22.22" length="8.20" shape="2686.58,311.35 2686.47,308.94 2686.78,307.28 2687.10,305.62 2687.03,303.22"/>
    </edge>
    <edge id=":11545638437_0" function="internal">
        <lane id=":11545638437_0_0" index="0" allow="private emergency authority army vip passenger hov taxi bus coach delivery truck trailer motorcycle evehicle custom1 custom2" speed="22.22" length="0.21" shape="2690.80,339.42 2690.77,339.21"/>
    </edge>
    <edge id=":1184903299#1-AddedOnRampNode_0" function="internal">
        <lane id=":1184903299#1-AddedOnRampNode_0_0" index="0" disallow="tram rail_urban rail rail_electric rail_fast ship container cable_car subway aircraft wheelchair scooter drone" speed="8.33" length="8.00" shape="4575.44,559.23 4574.03,551.36"/>
        <lane id=":1184903299#1-AddedOnRampNode_0_1" index="1" disallow="tram rail_urban rail rail_electric rail_fast ship container cable_car subway aircraft wheelchair scooter drone" speed="8.33" length="8.00" shape="4578.59,558.67 4577.18,550.79"/>
    </edge>
    <edge id=":11962119351_0" function="internal">
        <lane id=":11962119351_0_0" index="0" disallow="tram rail_urban rail rail_electric rail_fast ship container cable_car subway aircraft wheelchair scooter drone" speed="27.78" length="7.94" shape="1982.99,2756.70 1989.54,2752.21"/>
    </edge>
    <edge id=":11962119351_1" function="internal">
        <lane id=":11962119351_1_0" index="0" disallow="tram rail_urban rail rail_electric rail_fast ship container cable_car subway aircraft wheelchair scooter drone" speed="8.61" length="7.51" shape="1982.99,2756.70 1984.23,2756.14 1985.87,2755.93 1987.89,2756.07 1990.31,2756.55"/>
    </edge>
    <edge id=":128754480#1-AddedOnRampNode_0" function="internal">
        <lane id=":128754480#1-AddedOnRampNode_0_0" index="0" allow="private emergency authority army vip passenger hov taxi bus coach delivery truck trailer motorcycle evehicle custom1 custom2" speed="22.22" length="8.00" shape="2767.43,955.60 2765.58,963.38"/>
        <lane id=":128754480#1-AddedOnRampNode_0_1" index="1" allow="private emergency authority army vip passenger hov taxi bus coach delivery truck trailer motorcycle evehicle custom1 custom2" speed="22.22" length="8.00" shape="2764.32,954.86 2762.47,962.64"/>
    </edge>
    <edge id=":128754480#2-AddedOnRampNode_0" function="internal">
        <lane id=":128754480#2-AddedOnRampNode_0_0" index="0" allow="private emergency authority army vip passenger hov taxi bus coach delivery truck trailer motorcycle evehicle custom1 custom2" speed="22.22" length="8.00" shape="2695.47,1216.37 2693.08,1224.01"/>
        <lane id=":128754480#2-AddedOnRampNode_0_1" index="1" allow="private emergency authority army vip passenger hov taxi bus coach delivery truck trailer motorcycle evehicle custom1 custom2" speed="22.22" length="8.00" shape="2692.41,1215.42 2690.03,1223.06"/>
    </edge>
    <edge id=":128754482-AddedOnRampNode_0" function="internal">
        <lane id=":128754482-AddedOnRampNode_0_0" index="0" allow="private emergency authority army vip passenger hov taxi bus coach delivery truck trailer motorcycle evehicle custom1 custom2" speed="22.22" length="8.00" shape="2763.29,865.75 2771.20,866.96"/>
        <lane id=":128754482-AddedOnRampNode_0_1" index="1" allow="private emergency authority army vip passenger hov taxi bus coach delivery truck trailer motorcycle evehicle custom1 custom2" speed="22.22" length="8.00" shape="2762.81,868.91 2770.72,870.12"/>
    </edge>
    <edge id=":13111752864_0" function="internal">
        <lane id=":13111752864_0_0" index="0" disallow="tram rail_urban rail rail_electric rail_fast ship container cable_car subway aircraft wheelchair scooter drone" speed="27.78" length="8.73" shape="2303.36,627.97 2300.96,636.36"/>
        <lane id=":13111752864_0_1" index="1" disallow="tram rail_urban rail rail_electric rail_fast ship container cable_car subway aircraft wheelchair scooter drone" speed="27.78" length="8.73" shape="2300.28,627.09 2297.88,635.48"/>
    </edge>
    <edge id=":13111752864_2" function="internal">
        <lane id=":13111752864_2_0" index="0" disallow="tram rail_urban rail rail_electric rail_fast ship container cable_car subway aircraft wheelchair scooter drone" speed="7.22" length="7.79" shape="2300.28,627.09 2299.53,628.68 2298.27,629.90 2296.52,630.78 2294.26,631.29"/>
    </edge>
    <edge id=":13111752869_0" function="internal">
        <lane id=":13111752869_0_0" index="0" disallow="tram rail_urban rail rail_electric rail_fast ship container cable_car subway aircraft wheelchair scooter drone" speed="13.89" length="7.83" shape="2262.16,563.99 2261.88,556.16"/>
        <lane id=":13111752869_0_1" index="1" disallow="tram rail_urban rail rail_electric rail_fast ship container cable_car subway aircraft wheelchair scooter drone" speed="13.89" length="7.83" shape="2265.35,563.88 2265.08,556.05"/>
    </edge>
    <edge id=":13111752869_2" function="internal">
        <lane id=":13111752869_2_0" index="0" disallow="tram rail_urban rail rail_electric rail_fast ship container cable_car subway aircraft wheelchair scooter drone" speed="7.68" length="7.70" shape="2265.35,563.88 2265.53,562.02 2266.21,560.34 2267.38,558.85 2269.05,557.53"/>
    </edge>
    <edge id=":13111752877_0" function="internal">
        <lane id=":13111752877_0_0" index="0" disallow="tram rail_urban rail rail_electric rail_fast ship container cable_car subway aircraft wheelchair scooter drone" speed="27.78" length="9.12" shape="2290.92,545.70 2292.54,547.94 2293.66,549.47 2294.69,551.05 2296.04,553.46"/>
        <lane id=":13111752877_0_1" index="1" disallow="tram rail_urban rail rail_electric rail_fast ship container cable_car subway aircraft wheelchair scooter drone" speed="27.78" length="9.12" shape="2288.31,547.56 2289.87,549.70 2290.94,551.16 2291.93,552.68 2293.23,554.98"/>
    </edge>
    <edge id=":13111752877_2" function="internal">
        <lane id=":13111752877_2_0" index="0" disallow="tram rail_urban rail rail_electric rail_fast ship container cable_car subway aircraft wheelchair scooter drone" speed="7.67" length="8.16" shape="2286.01,552.08 2288.57,552.24 2290.62,552.77 2292.18,553.69 2293.23,554.98"/>
    </edge>
    <edge id=":1411552886_0" function="internal">
        <lane id=":1411552886_0_0" index="0" disallow="tram rail_urban rail rail_electric rail_fast ship container cable_car subway aircraft wheelchair scooter drone" speed="16.67" length="14.11" shape="1151.29,2332.13 1148.30,2345.93"/>
    </edge>
    <edge id=":1411552886_1" function="internal">
        <lane id=":1411552886_1_0" index="0" disallow="tram rail_urban rail rail_electric rail_fast ship container cable_car subway aircraft wheelchair scooter drone" speed="7.91" length="14.39" shape="1151.29,2332.13 1149.79,2335.81 1147.49,2338.06 1144.37,2338.89 1140.44,2338.29"/>
    </edge>
    <edge id=":1411552886_2" function="internal">
        <lane id=":1411552886_2_0" index="0" disallow="tram rail_urban rail rail_electric rail_fast ship container cable_car subway aircraft wheelchair scooter drone" speed="3.65" length="4.67" shape="1151.29,2332.13 1150.22,2333.10 1149.35,2333.30 1148.67,2332.72 1148.18,2331.36"/>
    </edge>
    <edge id=":1411552886_3" function="internal">
        <lane id=":1411552886_3_0" index="0" disallow="tram rail_urban rail rail_electric rail_fast ship container cable_car subway aircraft wheelchair scooter drone" speed="6.40" length="9.04" shape="1141.37,2335.23 1143.84,2335.60 1145.79,2335.08 1147.24,2333.67 1148.18,2331.36"/>
    </edge>
    <edge id=":1411552886_4" function="internal">
        <lane id=":1411552886_4_0" index="0" disallow="tram rail_urban rail rail_electric rail_fast ship container cable_car subway aircraft wheelchair scooter drone" speed="8.35" length="14.20" shape="1141.37,2335.23 1144.96,2336.85 1147.31,2339.18 1148.43,2342.20 1148.30,2345.93"/>
    </edge>
    <edge id=":1411552886_5" function="internal">
        <lane id=":1411552886_5_0" index="0" disallow="tram rail_urban rail rail_electric rail_fast ship container cable_car subway aircraft wheelchair scooter drone" speed="3.65" length="4.67" shape="1141.37,2335.23 1142.29,2336.34 1142.44,2337.22 1141.83,2337.87 1140.44,2338.29"/>
    </edge>
    <edge id=":1411552886_6" function="internal">
        <lane id=":1411552886_6_0" index="0" disallow="tram rail_urban rail rail_electric rail_fast ship container cable_car subway aircraft wheelchair scooter drone" speed="6.92" length="9.45" shape="1145.15,2345.35 1145.22,2342.91 1144.46,2340.92 1142.87,2339.38 1140.44,2338.29"/>
    </edge>
    <edge id=":1411552886_7" function="internal">
        <lane id=":1411552886_7_0" index="0" disallow="tram rail_urban rail rail_electric rail_fast ship container cable_car subway aircraft wheelchair scooter drone" speed="16.67" length="14.32" shape="1145.15,2345.35 1148.18,2331.36"/>
    </edge>
    <edge id=":1411552886_8" function="internal">
        <lane id=":1411552886_8_0" index="0" disallow="tram rail_urban rail rail_electric rail_fast ship container cable_car subway aircraft wheelchair scooter drone" speed="3.65" length="4.67" shape="1145.15,2345.35 1146.15,2344.31 1147.01,2344.06 1147.73,2344.60 1148.30,2345.93"/>
    </edge>
    <edge id=":1411552933_0" function="internal">
        <lane id=":1411552933_0_0" index="0" disallow="tram rail_urban rail rail_electric rail_fast ship container cable_car subway aircraft wheelchair scooter drone" speed="6.61" length="7.08" shape="467.91,2285.21 466.94,2286.81 466.56,2288.43 466.78,2290.09 467.60,2291.77"/>
    </edge>
    <edge id=":1411552933_1" function="internal">
        <lane id=":1411552933_1_0" index="0" disallow="tram rail_urban rail rail_electric rail_fast ship container cable_car subway aircraft wheelchair scooter drone" speed="3.65" length="1.34" shape="467.91,2285.21 466.63,2285.61"/>
    </edge>
    <edge id=":1411552933_4" function="internal">
        <lane id=":1411552933_4_0" index="0" disallow="tram rail_urban rail rail_electric rail_fast ship container cable_car subway aircraft wheelchair scooter drone" speed="3.65" length="3.34" shape="466.63,2285.61 466.53,2285.64 465.66,2285.46 465.29,2284.65 465.41,2283.21"/>
    </edge>
    <edge id=":1411552933_2" function="internal">
        <lane id=":1411552933_2_0" index="0" disallow="tram rail_urban rail rail_electric rail_fast ship container cable_car subway aircraft wheelchair scooter drone" speed="27.78" length="9.05" shape="461.44,2291.29 462.75,2288.96 463.34,2287.18 463.97,2285.43 465.41,2283.21"/>
    </edge>
    <edge id=":1411552933_3" function="internal">
        <lane id=":1411552933_3_0" index="0" disallow="tram rail_urban rail rail_electric rail_fast ship container cable_car subway aircraft wheelchair scooter drone" speed="5.48" length="3.79" shape="461.44,2291.29 462.96,2289.70 464.49,2289.25"/>
    </edge>
    <edge id=":1411552933_5" function="internal">
        <lane id=":1411552933_5_0" index="0" disallow="tram rail_urban rail rail_electric rail_fast ship container cable_car subway aircraft wheelchair scooter drone" speed="5.48" length="4.10" shape="464.49,2289.25 466.03,2289.94 467.60,2291.77"/>
    </edge>
    <edge id=":1411555537_0" function="internal">
        <lane id=":1411555537_0_0" index="0" disallow="tram rail_urban rail rail_electric rail_fast ship container cable_car subway aircraft wheelchair scooter drone" speed="27.78" length="0.54" shape="510.56,1617.08 510.52,1616.93 510.50,1616.82 510.48,1616.71 510.46,1616.55"/>
    </edge>
    <edge id=":1411555537_1" function="internal">
        <lane id=":1411555537_1_0" index="0" disallow="tram rail_urban rail rail_electric rail_fast ship container cable_car subway aircraft wheelchair scooter drone" speed="27.78" length="0.18" shape="513.64,1616.16 513.64,1616.21 513.65,1616.25 513.66,1616.28 513.67,1616.34"/>
    </edge>
    <edge id=":1422021141_0" function="internal">
        <lane id=":1422021141_0_0" index="0" allow="private emergency authority army vip passenger hov taxi bus coach delivery truck trailer motorcycle evehicle custom1 custom2" speed="27.78" length="0.33" shape="2687.43,1724.72 2687.49,1724.92"/>
        <lane id=":1422021141_0_1" index="1" allow="private emergency authority army vip passenger hov taxi bus coach delivery truck trailer motorcycle evehicle custom1 custom2" speed="27.78" length="0.33" shape="2684.35,1725.57 2684.42,1725.83"/>
        <lane id=":1422021141_0_2" index="2" allow="private emergency authority army vip passenger hov taxi bus coach delivery truck trailer motorcycle evehicle custom1 custom2" speed="27.78" length="0.33" shape="2681.27,1726.43 2681.35,1726.74"/>
        <lane id=":1422021141_0_3" index="3" allow="private emergency authority army vip passenger hov taxi bus coach delivery truck trailer motorcycle evehicle custom1 custom2" speed="27.78" length="0.33" shape="2678.18,1727.28 2678.29,1727.65"/>
        <lane id=":1422021141_0_4" index="4" allow="private emergency authority army vip passenger hov taxi bus coach delivery truck trailer motorcycle evehicle custom1 custom2" speed="27.78" length="0.33" shape="2675.10,1728.14 2675.22,1728.55"/>
    </edge>
    <edge id=":1422021145_0" function="internal">
        <lane id=":1422021145_0_0" index="0" disallow="tram rail_urban rail rail_electric rail_fast ship container cable_car subway aircraft wheelchair scooter drone" speed="27.78" length="8.44" shape="2668.40,1422.84 2669.03,1425.21 2670.23,1426.62 2671.47,1428.02 2672.21,1430.38"/>
        <lane id=":1422021145_0_1" index="1" disallow="tram rail_urban rail rail_electric rail_fast ship container cable_car subway aircraft wheelchair scooter drone" speed="27.78" length="8.44" shape="2668.40,1422.84 2669.03,1430.71"/>
        <lane id=":1422021145_0_2" index="2" disallow="tram rail_urban rail rail_electric rail_fast ship container cable_car subway aircraft wheelchair scooter drone" speed="27.78" length="8.44" shape="2668.40,1422.84 2668.04,1425.33 2667.05,1426.95 2666.09,1428.56 2665.85,1431.04"/>
    </edge>
    <edge id=":1422021186_0" function="internal">
        <lane id=":1422021186_0_0" index="0" allow="private emergency authority army vip passenger hov taxi bus coach delivery truck trailer motorcycle evehicle custom1 custom2" speed="25.00" length="14.72" shape="2674.78,1282.61 2670.97,1296.82"/>
    </edge>
    <edge id=":1422021186_1" function="internal">
        <lane id=":1422021186_1_0" index="0" allow="private emergency authority army vip passenger hov taxi bus coach delivery truck trailer motorcycle evehicle custom1 custom2" speed="22.22" length="14.65" shape="2671.72,1281.65 2670.45,1286.15 2669.64,1289.58 2668.87,1292.57 2667.75,1295.74"/>
    </edge>
    <edge id=":1422021204_0" function="internal">
        <lane id=":1422021204_0_0" index="0" allow="private emergency authority army vip passenger hov taxi bus coach delivery truck trailer motorcycle evehicle custom1 custom2" speed="11.11" length="7.84" shape="2641.02,1076.45 2639.75,1074.60 2638.55,1073.58 2637.28,1072.60 2635.84,1070.85"/>
        <lane id=":1422021204_0_1" index="1" allow="private emergency authority army vip passenger hov taxi bus coach delivery truck trailer motorcycle evehicle custom1 custom2" speed="11.11" length="7.84" shape="2643.85,1074.95 2642.54,1073.02 2641.30,1071.95 2640.01,1070.91 2638.51,1069.09"/>
    </edge>
    <edge id=":1422021213_0" function="internal">
        <lane id=":1422021213_0_0" index="0" allow="private emergency authority army vip passenger hov taxi bus coach delivery truck trailer motorcycle evehicle custom1 custom2" speed="27.78" length="0.33" shape="2648.66,1736.07 2648.54,1735.64"/>
        <lane id=":1422021213_0_1" index="1" allow="private emergency authority army vip passenger hov taxi bus coach delivery truck trailer motorcycle evehicle custom1 custom2" speed="27.78" length="0.33" shape="2651.73,1735.14 2651.62,1734.78"/>
        <lane id=":1422021213_0_2" index="2" allow="private emergency authority army vip passenger hov taxi bus coach delivery truck trailer motorcycle evehicle custom1 custom2" speed="27.78" length="0.33" shape="2654.79,1734.21 2654.70,1733.92"/>
        <lane id=":1422021213_0_3" index="3" allow="private emergency authority army vip passenger hov taxi bus coach delivery truck trailer motorcycle evehicle custom1 custom2" speed="27.78" length="0.33" shape="2657.85,1733.28 2657.79,1733.06"/>
    </edge>
    <edge id=":1422021234_0" function="internal">
        <lane id=":1422021234_0_0" index="0" allow="private emergency authority army vip passenger hov taxi bus coach delivery truck trailer motorcycle evehicle custom1 custom2" speed="22.22" length="0.30" shape="2795.62,885.80 2795.31,885.77"/>
        <lane id=":1422021234_0_1" index="1" allow="private emergency authority army vip passenger hov taxi bus coach delivery truck trailer motorcycle evehicle custom1 custom2" speed="22.22" length="0.30" shape="2795.95,882.62 2795.67,882.59"/>
    </edge>
    <edge id=":1422021246_0" function="internal">
        <lane id=":1422021246_0_0" index="0" allow="private emergency authority army vip passenger hov taxi bus coach delivery truck trailer motorcycle evehicle custom1 custom2" speed="22.22" length="2.84" shape="2821.89,869.34 2824.64,869.64"/>
        <lane id=":1422021246_0_1" index="1" allow="private emergency authority army vip passenger hov taxi bus coach delivery truck trailer motorcycle evehicle custom1 custom2" speed="22.22" length="2.84" shape="2821.47,872.51 2824.36,872.83"/>
    </edge>
    <edge id=":1422021246_2" function="internal">
        <lane id=":1422021246_2_0" index="0" allow="private emergency authority army vip passenger hov taxi bus coach delivery truck trailer motorcycle evehicle custom1 custom2" speed="22.22" length="3.05" shape="2821.05,875.69 2824.08,876.02"/>
    </edge>
    <edge id=":1422021278_0" function="internal">
        <lane id=":1422021278_0_0" index="0" allow="private emergency authority army vip passenger hov taxi bus coach delivery truck trailer motorcycle evehicle custom1 custom2" speed="25.00" length="3.23" shape="2782.12,638.69 2782.28,639.64 2782.42,640.28 2782.59,640.91 2782.89,641.83"/>
    </edge>
    <edge id=":1422021278_1" function="internal">
        <lane id=":1422021278_1_0" index="0" allow="private emergency authority army vip passenger hov taxi bus coach delivery truck trailer motorcycle evehicle custom1 custom2" speed="25.00" length="3.18" shape="2778.96,639.22 2779.36,642.38"/>
    </edge>
    <edge id=":1422021296_0" function="internal">
        <lane id=":1422021296_0_0" index="0" disallow="tram rail_urban rail rail_electric rail_fast ship container cable_car subway aircraft wheelchair scooter drone" speed="27.78" length="16.86" shape="2715.75,1663.93 2717.22,1668.82 2717.89,1672.26 2718.37,1675.75 2719.26,1680.80"/>
        <lane id=":1422021296_0_1" index="1" disallow="tram rail_urban rail rail_electric rail_fast ship container cable_car subway aircraft wheelchair scooter drone" speed="27.78" length="16.86" shape="2712.72,1664.97 2714.16,1669.74 2714.80,1673.10 2715.26,1676.52 2716.13,1681.45"/>
        <lane id=":1422021296_0_2" index="2" disallow="tram rail_urban rail rail_electric rail_fast ship container cable_car subway aircraft wheelchair scooter drone" speed="27.78" length="16.86" shape="2709.69,1666.00 2711.09,1670.67 2711.71,1673.95 2712.15,1677.28 2713.00,1682.10"/>
    </edge>
    <edge id=":1422021296_3" function="internal">
        <lane id=":1422021296_3_0" index="0" disallow="tram rail_urban rail rail_electric rail_fast ship container cable_car subway aircraft wheelchair scooter drone" speed="19.71" length="15.82" shape="2706.66,1667.03 2708.25,1671.87 2709.21,1675.67 2709.55,1679.00 2709.26,1682.45"/>
    </edge>
    <edge id=":1422021305_0" function="internal">
        <lane id=":1422021305_0_0" index="0" allow="private emergency authority army vip passenger hov taxi bus coach delivery truck trailer motorcycle evehicle custom1 custom2" speed="27.78" length="0.51" shape="2849.84,2449.90 2849.72,2449.23"/>
        <lane id=":1422021305_0_1" index="1" allow="private emergency authority army vip passenger hov taxi bus coach delivery truck trailer motorcycle evehicle custom1 custom2" speed="27.78" length="0.51" shape="2852.98,2449.32 2852.89,2448.76"/>
        <lane id=":1422021305_0_2" index="2" allow="private emergency authority army vip passenger hov taxi bus coach delivery truck trailer motorcycle evehicle custom1 custom2" speed="27.78" length="0.51" shape="2856.13,2448.73 2856.05,2448.29"/>
        <lane id=":1422021305_0_3" index="3" allow="private emergency authority army vip passenger hov taxi bus coach delivery truck trailer motorcycle evehicle custom1 custom2" speed="27.78" length="0.51" shape="2859.28,2448.15 2859.22,2447.82"/>
    </edge>
    <edge id=":1422021329_0" function="internal">
        <lane id=":1422021329_0_0" index="0" allow="private emergency authority army vip passenger hov taxi bus coach delivery truck trailer motorcycle evehicle custom1 custom2" speed="27.78" length="0.52" shape="2844.11,2411.48 2844.05,2411.14"/>
        <lane id=":1422021329_0_1" index="1" allow="private emergency authority army vip passenger hov taxi bus coach delivery truck trailer motorcycle evehicle custom1 custom2" speed="27.78" length="0.52" shape="2847.27,2411.00 2847.20,2410.55"/>
        <lane id=":1422021329_0_2" index="2" allow="private emergency authority army vip passenger hov taxi bus coach delivery truck trailer motorcycle evehicle custom1 custom2" speed="27.78" length="0.52" shape="2850.44,2410.53 2850.34,2409.96"/>
        <lane id=":1422021329_0_3" index="3" allow="private emergency authority army vip passenger hov taxi bus coach delivery truck trailer motorcycle evehicle custom1 custom2" speed="27.78" length="0.52" shape="2853.60,2410.06 2853.49,2409.38"/>
    </edge>
    <edge id=":1422021331_0" function="internal">
        <lane id=":1422021331_0_0" index="0" allow="private emergency authority army vip passenger hov taxi bus coach delivery truck trailer motorcycle evehicle custom1 custom2" speed="27.78" length="0.29" shape="2676.56,1685.51 2676.62,1685.71"/>
        <lane id=":1422021331_0_1" index="1" allow="private emergency authority army vip passenger hov taxi bus coach delivery truck trailer motorcycle evehicle custom1 custom2" speed="27.78" length="0.29" shape="2673.47,1686.32 2673.53,1686.56"/>
        <lane id=":1422021331_0_2" index="2" allow="private emergency authority army vip passenger hov taxi bus coach delivery truck trailer motorcycle evehicle custom1 custom2" speed="27.78" length="0.29" shape="2670.37,1687.14 2670.45,1687.42"/>
        <lane id=":1422021331_0_3" index="3" allow="private emergency authority army vip passenger hov taxi bus coach delivery truck trailer motorcycle evehicle custom1 custom2" speed="27.78" length="0.29" shape="2667.28,1687.95 2667.37,1688.27"/>
        <lane id=":1422021331_0_4" index="4" allow="private emergency authority army vip passenger hov taxi bus coach delivery truck trailer motorcycle evehicle custom1 custom2" speed="27.78" length="0.29" shape="2664.19,1688.77 2664.28,1689.13"/>
    </edge>
    <edge id=":1422021332_0" function="internal">
        <lane id=":1422021332_0_0" index="0" allow="private emergency authority army vip passenger hov taxi bus coach delivery truck trailer motorcycle evehicle custom1 custom2" speed="27.78" length="0.30" shape="2880.21,2404.12 2880.28,2404.47"/>
        <lane id=":1422021332_0_1" index="1" allow="private emergency authority army vip passenger hov taxi bus coach delivery truck trailer motorcycle evehicle custom1 custom2" speed="27.78" length="0.30" shape="2877.08,2404.81 2877.15,2405.13"/>
        <lane id=":1422021332_0_2" index="2" allow="private emergency authority army vip passenger hov taxi bus coach delivery truck trailer motorcycle evehicle custom1 custom2" speed="27.78" length="0.30" shape="2873.96,2405.50 2874.02,2405.79"/>
        <lane id=":1422021332_0_3" index="3" allow="private emergency authority army vip passenger hov taxi bus coach delivery truck trailer motorcycle evehicle custom1 custom2" speed="27.78" length="0.30" shape="2870.83,2406.19 2870.89,2406.45"/>