<configuration>
            <input>
                <net-file value="osm.net.xml"/>
                <route-files value="osm.rou.xml"/>
                <additional-files value="detectors.add.xml"/>
                <gui-settings-file value="gui-settings.xml"/>
            </input>
            <time><begin value="0"/><end value="3600"/></time>
            </configuration>